/*---------------------------------------------------------------------------*\
  =========                 |
  \\      /  F ield         | OpenFOAM: The Open Source CFD Toolbox
   \\    /   O peration     | Website:  https://openfoam.org
    \\  /    A nd           | Version:  13
     \\/     M anipulation  |
\*---------------------------------------------------------------------------*/
Build  : 13-65eda17ad4ca
Exec   : foamRun -parallel
Date   : Sep 29 2025
Time   : 02:02:58
Host   : "of13"
PID    : 15309
I/O    : uncollated
Case   : /home/openfoam13/OF-13/methaneAirBurning_2D_multShock
nProcs : 6
Slaves : 
5
(
"of13.15310"
"of13.15311"
"of13.15312"
"of13.15313"
"of13.15314"
)

Pstream initialised with:
    floatTransfer      : false
    nProcsSimpleSum    : 0
    commsType          : nonBlocking
    polling iterations : 0
sigFpe : Floating point exception trapping - not supported on this platform
fileModificationChecking : Monitoring run-time modified files using timeStampMaster (fileModificationSkew 10)
allowSystemOperations : Allowing user-supplied system call operations

// * * * * * * * * * * * * * * * * * * * * * * * * * * * * * * * * * * * * * //
Create time

Create mesh for time = 0

Selecting solver multicomponentShockFluid
Selecting thermodynamics package 
{
    type            hePsiThermo;
    mixture         multicomponentMixture;
    transport       sutherland;
    thermo          janaf;
    energy          sensibleInternalEnergy;
    equationOfState perfectGas;
    specie          specie;
}

Selecting turbulence model type laminar
    Selecting laminar stress model Stokes
Selecting combustion model laminar
Selecting chemistry solver 
{
    solver          ode;
    method          chemistryModel;
}

odeChemistryModel: Number of species = 5
chemistryModel: Number of species = 5 and reactions = 1
Selecting ODE solver Rosenbrock34
    using integrated reaction rate
Selecting thermophysical transport type laminar
Selecting default laminar thermophysical transport model unityLewisFourier
Courant Number mean: 0.0360866 max: 0.0600723
Creating fvModels from "constant/fvModels"


PIMPLE: No convergence criteria found


PIMPLE: No corrector convergence criteria found
        Calculations will do 2 corrections


PIMPLE: Operating solver in transient mode with 2 outer correctors



Starting time loop

Courant Number mean: 0.0360866 max: 0.0600723
deltaT = 1.19048e-06
Time = 1.19048e-06s

PIMPLE: Iteration 1
diagonal:  Solving for rho, Initial residual = 0, Final residual = 0, No Iterations 0
smoothSolver:  Solving for Ux, Initial residual = 1, Final residual = 5.70833e-13, No Iterations 2
smoothSolver:  Solving for Uy, Initial residual = 1, Final residual = 5.70836e-13, No Iterations 2
smoothSolver:  Solving for O2, Initial residual = 0.999998, Final residual = 7.08674e-11, No Iterations 2
smoothSolver:  Solving for H2O, Initial residual = 1, Final residual = 1.52875e-12, No Iterations 2
smoothSolver:  Solving for CH4, Initial residual = 0.999999, Final residual = 1.1841e-10, No Iterations 2
smoothSolver:  Solving for CO2, Initial residual = 1, Final residual = 1.52871e-12, No Iterations 2
smoothSolver:  Solving for e, Initial residual = 0.000408274, Final residual = 5.23199e-16, No Iterations 2
PIMPLE: Iteration 2
diagonal:  Solving for rho, Initial residual = 0, Final residual = 0, No Iterations 0
smoothSolver:  Solving for Ux, Initial residual = 0.0186065, Final residual = 4.906e-15, No Iterations 2
smoothSolver:  Solving for Uy, Initial residual = 0.0186065, Final residual = 4.90488e-15, No Iterations 2
smoothSolver:  Solving for O2, Initial residual = 0.000369032, Final residual = 1.65656e-11, No Iterations 2
smoothSolver:  Solving for H2O, Initial residual = 0.000369032, Final residual = 2.54408e-16, No Iterations 2
smoothSolver:  Solving for CH4, Initial residual = 0.000369032, Final residual = 3.22091e-11, No Iterations 2
smoothSolver:  Solving for CO2, Initial residual = 0.000369032, Final residual = 2.04638e-16, No Iterations 2
smoothSolver:  Solving for e, Initial residual = 6.02289e-05, Final residual = 3.17703e-16, No Iterations 2
ExecutionTime = 0.680293 s  ClockTime = 1 s

Courant Number mean: 0.0429623 max: 0.07185
deltaT = 1.41156e-06
Time = 2.60204e-06s

PIMPLE: Iteration 1
diagonal:  Solving for rho, Initial residual = 0, Final residual = 0, No Iterations 0
smoothSolver:  Solving for Ux, Initial residual = 0.229076, Final residual = 1.8114e-13, No Iterations 2
smoothSolver:  Solving for Uy, Initial residual = 0.229076, Final residual = 1.81136e-13, No Iterations 2
smoothSolver:  Solving for O2, Initial residual = 0.237292, Final residual = 1.13172e-11, No Iterations 2
smoothSolver:  Solving for H2O, Initial residual = 0.237291, Final residual = 5.09875e-13, No Iterations 2
smoothSolver:  Solving for CH4, Initial residual = 0.237291, Final residual = 2.77515e-11, No Iterations 2
smoothSolver:  Solving for CO2, Initial residual = 0.237291, Final residual = 5.0995e-13, No Iterations 2
smoothSolver:  Solving for e, Initial residual = 0.000428594, Final residual = 8.416e-16, No Iterations 2
PIMPLE: Iteration 2
diagonal:  Solving for rho, Initial residual = 0, Final residual = 0, No Iterations 0
smoothSolver:  Solving for Ux, Initial residual = 0.0104399, Final residual = 4.29355e-15, No Iterations 2
smoothSolver:  Solving for Uy, Initial residual = 0.0104399, Final residual = 4.29481e-15, No Iterations 2
smoothSolver:  Solving for O2, Initial residual = 0.000100882, Final residual = 5.87353e-12, No Iterations 2
smoothSolver:  Solving for H2O, Initial residual = 0.000100882, Final residual = 9.71451e-17, No Iterations 2
smoothSolver:  Solving for CH4, Initial residual = 0.000100882, Final residual = 1.59266e-11, No Iterations 2
smoothSolver:  Solving for CO2, Initial residual = 0.000100882, Final residual = 1.27276e-16, No Iterations 2
smoothSolver:  Solving for e, Initial residual = 7.01645e-05, Final residual = 3.56784e-16, No Iterations 2
ExecutionTime = 0.908171 s  ClockTime = 1 s

Courant Number mean: 0.0509439 max: 0.0855495
deltaT = 1.67928e-06
Time = 4.28132e-06s

PIMPLE: Iteration 1
diagonal:  Solving for rho, Initial residual = 0, Final residual = 0, No Iterations 0
smoothSolver:  Solving for Ux, Initial residual = 0.139319, Final residual = 1.53704e-13, No Iterations 2
smoothSolver:  Solving for Uy, Initial residual = 0.139319, Final residual = 1.53702e-13, No Iterations 2
smoothSolver:  Solving for O2, Initial residual = 0.144754, Final residual = 6.0681e-12, No Iterations 2
smoothSolver:  Solving for H2O, Initial residual = 0.144754, Final residual = 4.40262e-13, No Iterations 2
smoothSolver:  Solving for CH4, Initial residual = 0.144754, Final residual = 1.66602e-11, No Iterations 2
smoothSolver:  Solving for CO2, Initial residual = 0.144754, Final residual = 4.40206e-13, No Iterations 2
smoothSolver:  Solving for e, Initial residual = 0.000450259, Final residual = 1.2249e-15, No Iterations 2
PIMPLE: Iteration 2
diagonal:  Solving for rho, Initial residual = 0, Final residual = 0, No Iterations 0
smoothSolver:  Solving for Ux, Initial residual = 0.00905251, Final residual = 5.16048e-15, No Iterations 2
smoothSolver:  Solving for Uy, Initial residual = 0.00905251, Final residual = 5.16147e-15, No Iterations 2
smoothSolver:  Solving for O2, Initial residual = 4.89624e-05, Final residual = 4.65317e-12, No Iterations 2
smoothSolver:  Solving for H2O, Initial residual = 4.89624e-05, Final residual = 1.4368e-16, No Iterations 2
smoothSolver:  Solving for CH4, Initial residual = 4.89624e-05, Final residual = 1.18473e-11, No Iterations 2
smoothSolver:  Solving for CO2, Initial residual = 4.89624e-05, Final residual = 1.01463e-16, No Iterations 2
smoothSolver:  Solving for e, Initial residual = 8.09845e-05, Final residual = 4.69144e-16, No Iterations 2
ExecutionTime = 1.1496 s  ClockTime = 1 s

Courant Number mean: 0.0606098 max: 0.102201
deltaT = 1.99414e-06
Time = 6.27546e-06s

PIMPLE: Iteration 1
diagonal:  Solving for rho, Initial residual = 0, Final residual = 0, No Iterations 0
smoothSolver:  Solving for Ux, Initial residual = 0.104692, Final residual = 1.6077e-13, No Iterations 2
smoothSolver:  Solving for Uy, Initial residual = 0.104692, Final residual = 1.60767e-13, No Iterations 2
smoothSolver:  Solving for O2, Initial residual = 0.108874, Final residual = 4.27277e-12, No Iterations 2
smoothSolver:  Solving for H2O, Initial residual = 0.108874, Final residual = 4.66928e-13, No Iterations 2
smoothSolver:  Solving for CH4, Initial residual = 0.108874, Final residual = 1.19127e-11, No Iterations 2
smoothSolver:  Solving for CO2, Initial residual = 0.108874, Final residual = 4.67007e-13, No Iterations 2
smoothSolver:  Solving for e, Initial residual = 0.000470923, Final residual = 1.45433e-15, No Iterations 2
PIMPLE: Iteration 2
diagonal:  Solving for rho, Initial residual = 0, Final residual = 0, No Iterations 0
smoothSolver:  Solving for Ux, Initial residual = 0.00902415, Final residual = 7.01168e-15, No Iterations 2
smoothSolver:  Solving for Uy, Initial residual = 0.00902415, Final residual = 7.01133e-15, No Iterations 2
smoothSolver:  Solving for O2, Initial residual = 7.14592e-05, Final residual = 2.6785e-12, No Iterations 2
smoothSolver:  Solving for H2O, Initial residual = 7.14592e-05, Final residual = 1.93181e-16, No Iterations 2
smoothSolver:  Solving for CH4, Initial residual = 7.14592e-05, Final residual = 9.54814e-12, No Iterations 2
smoothSolver:  Solving for CO2, Initial residual = 7.14592e-05, Final residual = 1.74544e-16, No Iterations 2
smoothSolver:  Solving for e, Initial residual = 9.17747e-05, Final residual = 3.37018e-16, No Iterations 2
ExecutionTime = 1.37808 s  ClockTime = 1 s

Courant Number mean: 0.0719799 max: 0.121879
deltaT = 2.34311e-06
Time = 8.61857e-06s

PIMPLE: Iteration 1
diagonal:  Solving for rho, Initial residual = 0, Final residual = 0, No Iterations 0
smoothSolver:  Solving for Ux, Initial residual = 0.085824, Final residual = 1.79832e-13, No Iterations 2
smoothSolver:  Solving for Uy, Initial residual = 0.085824, Final residual = 1.79832e-13, No Iterations 2
smoothSolver:  Solving for O2, Initial residual = 0.0892533, Final residual = 3.32937e-12, No Iterations 2
smoothSolver:  Solving for H2O, Initial residual = 0.0892533, Final residual = 5.28658e-13, No Iterations 2
smoothSolver:  Solving for CH4, Initial residual = 0.0892533, Final residual = 4.66636e-12, No Iterations 2
smoothSolver:  Solving for CO2, Initial residual = 0.0892533, Final residual = 5.28663e-13, No Iterations 2
smoothSolver:  Solving for e, Initial residual = 0.000488522, Final residual = 2.19723e-15, No Iterations 2
PIMPLE: Iteration 2
diagonal:  Solving for rho, Initial residual = 0, Final residual = 0, No Iterations 0
smoothSolver:  Solving for Ux, Initial residual = 0.00933745, Final residual = 9.76946e-15, No Iterations 2
smoothSolver:  Solving for Uy, Initial residual = 0.00933745, Final residual = 9.76777e-15, No Iterations 2
smoothSolver:  Solving for O2, Initial residual = 8.73802e-05, Final residual = 2.79175e-12, No Iterations 2
smoothSolver:  Solving for H2O, Initial residual = 8.73802e-05, Final residual = 2.80413e-16, No Iterations 2
smoothSolver:  Solving for CH4, Initial residual = 8.73802e-05, Final residual = 3.43934e-12, No Iterations 2
smoothSolver:  Solving for CO2, Initial residual = 8.73802e-05, Final residual = 3.07969e-16, No Iterations 2
smoothSolver:  Solving for e, Initial residual = 0.000100637, Final residual = 4.68136e-16, No Iterations 2
ExecutionTime = 1.60958 s  ClockTime = 2 s

Courant Number mean: 0.0845842 max: 0.143842
deltaT = 2.76913e-06
Time = 1.13877e-05s

PIMPLE: Iteration 1
diagonal:  Solving for rho, Initial residual = 0, Final residual = 0, No Iterations 0
smoothSolver:  Solving for Ux, Initial residual = 0.0749294, Final residual = 2.17132e-13, No Iterations 2
smoothSolver:  Solving for Uy, Initial residual = 0.0749294, Final residual = 2.17132e-13, No Iterations 2
smoothSolver:  Solving for O2, Initial residual = 0.0778408, Final residual = 2.75713e-12, No Iterations 2
smoothSolver:  Solving for H2O, Initial residual = 0.0778408, Final residual = 6.44254e-13, No Iterations 2
smoothSolver:  Solving for CH4, Initial residual = 0.0778408, Final residual = 4.12518e-12, No Iterations 2
smoothSolver:  Solving for CO2, Initial residual = 0.0778408, Final residual = 6.44307e-13, No Iterations 2
smoothSolver:  Solving for e, Initial residual = 0.000514151, Final residual = 3.3513e-15, No Iterations 2
PIMPLE: Iteration 2
diagonal:  Solving for rho, Initial residual = 0, Final residual = 0, No Iterations 0
smoothSolver:  Solving for Ux, Initial residual = 0.0100512, Final residual = 1.46709e-14, No Iterations 2
smoothSolver:  Solving for Uy, Initial residual = 0.0100512, Final residual = 1.4674e-14, No Iterations 2
smoothSolver:  Solving for O2, Initial residual = 9.06983e-05, Final residual = 2.00444e-12, No Iterations 2
smoothSolver:  Solving for H2O, Initial residual = 9.06983e-05, Final residual = 4.0675e-16, No Iterations 2
smoothSolver:  Solving for CH4, Initial residual = 9.06983e-05, Final residual = 3.26317e-12, No Iterations 2
smoothSolver:  Solving for CO2, Initial residual = 9.06983e-05, Final residual = 3.91091e-16, No Iterations 2
smoothSolver:  Solving for e, Initial residual = 0.000111022, Final residual = 6.41195e-16, No Iterations 2
ExecutionTime = 1.83784 s  ClockTime = 2 s

Courant Number mean: 0.0999737 max: 0.170841
deltaT = 3.16472e-06
Time = 1.45524e-05s

PIMPLE: Iteration 1
diagonal:  Solving for rho, Initial residual = 0, Final residual = 0, No Iterations 0
smoothSolver:  Solving for Ux, Initial residual = 0.0657093, Final residual = 2.46966e-13, No Iterations 2
smoothSolver:  Solving for Uy, Initial residual = 0.0657093, Final residual = 2.46966e-13, No Iterations 2
smoothSolver:  Solving for O2, Initial residual = 0.0681159, Final residual = 2.60001e-12, No Iterations 2
smoothSolver:  Solving for H2O, Initial residual = 0.0681159, Final residual = 7.36772e-13, No Iterations 2
smoothSolver:  Solving for CH4, Initial residual = 0.0681159, Final residual = 3.93206e-12, No Iterations 2
smoothSolver:  Solving for CO2, Initial residual = 0.0681159, Final residual = 7.36705e-13, No Iterations 2
smoothSolver:  Solving for e, Initial residual = 0.000533138, Final residual = 4.71585e-15, No Iterations 2
PIMPLE: Iteration 2
diagonal:  Solving for rho, Initial residual = 0, Final residual = 0, No Iterations 0
smoothSolver:  Solving for Ux, Initial residual = 0.010296, Final residual = 1.9966e-14, No Iterations 2
smoothSolver:  Solving for Uy, Initial residual = 0.010296, Final residual = 1.99657e-14, No Iterations 2
smoothSolver:  Solving for O2, Initial residual = 7.66808e-05, Final residual = 1.6803e-12, No Iterations 2
smoothSolver:  Solving for H2O, Initial residual = 7.66808e-05, Final residual = 4.8356e-16, No Iterations 2
smoothSolver:  Solving for CH4, Initial residual = 7.66808e-05, Final residual = 2.67325e-12, No Iterations 2
smoothSolver:  Solving for CO2, Initial residual = 7.66808e-05, Final residual = 5.01148e-16, No Iterations 2
smoothSolver:  Solving for e, Initial residual = 0.000114784, Final residual = 8.05944e-16, No Iterations 2
ExecutionTime = 2.06567 s  ClockTime = 2 s

Courant Number mean: 0.114269 max: 0.196386
deltaT = 3.16472e-06
Time = 1.77172e-05s

PIMPLE: Iteration 1
diagonal:  Solving for rho, Initial residual = 0, Final residual = 0, No Iterations 0
smoothSolver:  Solving for Ux, Initial residual = 0.0523847, Final residual = 1.96252e-13, No Iterations 2
smoothSolver:  Solving for Uy, Initial residual = 0.0523847, Final residual = 1.96252e-13, No Iterations 2
smoothSolver:  Solving for O2, Initial residual = 0.0541598, Final residual = 1.90523e-12, No Iterations 2
smoothSolver:  Solving for H2O, Initial residual = 0.0541598, Final residual = 5.86173e-13, No Iterations 2
smoothSolver:  Solving for CH4, Initial residual = 0.0541598, Final residual = 2.83564e-12, No Iterations 2
smoothSolver:  Solving for CO2, Initial residual = 0.0541598, Final residual = 5.86161e-13, No Iterations 2
smoothSolver:  Solving for e, Initial residual = 0.000495016, Final residual = 4.57665e-15, No Iterations 2
PIMPLE: Iteration 2
diagonal:  Solving for rho, Initial residual = 0, Final residual = 0, No Iterations 0
smoothSolver:  Solving for Ux, Initial residual = 0.00829827, Final residual = 1.67146e-14, No Iterations 2
smoothSolver:  Solving for Uy, Initial residual = 0.00829827, Final residual = 1.67147e-14, No Iterations 2
smoothSolver:  Solving for O2, Initial residual = 4.7372e-05, Final residual = 1.27527e-12, No Iterations 2
smoothSolver:  Solving for H2O, Initial residual = 4.73719e-05, Final residual = 4.37258e-16, No Iterations 2
smoothSolver:  Solving for CH4, Initial residual = 4.73719e-05, Final residual = 2.08732e-12, No Iterations 2
smoothSolver:  Solving for CO2, Initial residual = 4.73719e-05, Final residual = 3.83629e-16, No Iterations 2
smoothSolver:  Solving for e, Initial residual = 9.24441e-05, Final residual = 7.05586e-16, No Iterations 2
ExecutionTime = 2.29321 s  ClockTime = 2 s

Courant Number mean: 0.114282 max: 0.197736
deltaT = 3.16472e-06
Time = 2.08819e-05s

PIMPLE: Iteration 1
diagonal:  Solving for rho, Initial residual = 0, Final residual = 0, No Iterations 0
smoothSolver:  Solving for Ux, Initial residual = 0.0436012, Final residual = 1.63224e-13, No Iterations 2
smoothSolver:  Solving for Uy, Initial residual = 0.0436012, Final residual = 1.63224e-13, No Iterations 2
smoothSolver:  Solving for O2, Initial residual = 0.0449646, Final residual = 1.75172e-12, No Iterations 2
smoothSolver:  Solving for H2O, Initial residual = 0.0449646, Final residual = 4.87041e-13, No Iterations 2
smoothSolver:  Solving for CH4, Initial residual = 0.0449646, Final residual = 2.4925e-12, No Iterations 2
smoothSolver:  Solving for CO2, Initial residual = 0.0449646, Final residual = 4.87009e-13, No Iterations 2
smoothSolver:  Solving for e, Initial residual = 0.000470676, Final residual = 4.54581e-15, No Iterations 2
PIMPLE: Iteration 2
diagonal:  Solving for rho, Initial residual = 0, Final residual = 0, No Iterations 0
smoothSolver:  Solving for Ux, Initial residual = 0.00682661, Final residual = 1.44238e-14, No Iterations 2
smoothSolver:  Solving for Uy, Initial residual = 0.00682661, Final residual = 1.44221e-14, No Iterations 2
smoothSolver:  Solving for O2, Initial residual = 3.47688e-05, Final residual = 1.02847e-12, No Iterations 2
smoothSolver:  Solving for H2O, Initial residual = 3.47688e-05, Final residual = 3.67681e-16, No Iterations 2
smoothSolver:  Solving for CH4, Initial residual = 3.47688e-05, Final residual = 1.8525e-12, No Iterations 2
smoothSolver:  Solving for CO2, Initial residual = 3.47688e-05, Final residual = 3.74652e-16, No Iterations 2
smoothSolver:  Solving for e, Initial residual = 7.70397e-05, Final residual = 5.8464e-16, No Iterations 2
ExecutionTime = 2.52091 s  ClockTime = 3 s

Courant Number mean: 0.114295 max: 0.199572
deltaT = 3.16472e-06
Time = 2.40466e-05s

PIMPLE: Iteration 1
diagonal:  Solving for rho, Initial residual = 0, Final residual = 0, No Iterations 0
smoothSolver:  Solving for Ux, Initial residual = 0.0373636, Final residual = 1.39918e-13, No Iterations 2
smoothSolver:  Solving for Uy, Initial residual = 0.0373636, Final residual = 1.39919e-13, No Iterations 2
smoothSolver:  Solving for O2, Initial residual = 0.0384478, Final residual = 1.30345e-12, No Iterations 2
smoothSolver:  Solving for H2O, Initial residual = 0.0384478, Final residual = 4.16764e-13, No Iterations 2
smoothSolver:  Solving for CH4, Initial residual = 0.0384478, Final residual = 2.10032e-12, No Iterations 2
smoothSolver:  Solving for CO2, Initial residual = 0.0384478, Final residual = 4.16698e-13, No Iterations 2
smoothSolver:  Solving for e, Initial residual = 0.000455011, Final residual = 4.50522e-15, No Iterations 2
PIMPLE: Iteration 2
diagonal:  Solving for rho, Initial residual = 0, Final residual = 0, No Iterations 0
smoothSolver:  Solving for Ux, Initial residual = 0.00568337, Final residual = 1.28765e-14, No Iterations 2
smoothSolver:  Solving for Uy, Initial residual = 0.00568337, Final residual = 1.28757e-14, No Iterations 2
smoothSolver:  Solving for O2, Initial residual = 3.20055e-05, Final residual = 1.08239e-12, No Iterations 2
smoothSolver:  Solving for H2O, Initial residual = 3.20055e-05, Final residual = 3.16322e-16, No Iterations 2
smoothSolver:  Solving for CH4, Initial residual = 3.20055e-05, Final residual = 1.52081e-12, No Iterations 2
smoothSolver:  Solving for CO2, Initial residual = 3.20055e-05, Final residual = 2.76589e-16, No Iterations 2
smoothSolver:  Solving for e, Initial residual = 6.61924e-05, Final residual = 5.03821e-16, No Iterations 2
ExecutionTime = 2.74996 s  ClockTime = 3 s

Courant Number mean: 0.114308 max: 0.201338
deltaT = 3.03814e-06
Time = 2.70847e-05s

PIMPLE: Iteration 1
diagonal:  Solving for rho, Initial residual = 0, Final residual = 0, No Iterations 0
smoothSolver:  Solving for Ux, Initial residual = 0.0314313, Final residual = 1.08495e-13, No Iterations 2
smoothSolver:  Solving for Uy, Initial residual = 0.0314313, Final residual = 1.08495e-13, No Iterations 2
smoothSolver:  Solving for O2, Initial residual = 0.0322853, Final residual = 9.78019e-13, No Iterations 2
smoothSolver:  Solving for H2O, Initial residual = 0.0322853, Final residual = 3.22717e-13, No Iterations 2
smoothSolver:  Solving for CH4, Initial residual = 0.0322853, Final residual = 1.73734e-12, No Iterations 2
smoothSolver:  Solving for CO2, Initial residual = 0.0322853, Final residual = 3.22776e-13, No Iterations 2
smoothSolver:  Solving for e, Initial residual = 0.000429139, Final residual = 4.03769e-15, No Iterations 2
PIMPLE: Iteration 2
diagonal:  Solving for rho, Initial residual = 0, Final residual = 0, No Iterations 0
smoothSolver:  Solving for Ux, Initial residual = 0.00440892, Final residual = 1.01745e-14, No Iterations 2
smoothSolver:  Solving for Uy, Initial residual = 0.00440892, Final residual = 1.01752e-14, No Iterations 2
smoothSolver:  Solving for O2, Initial residual = 2.6176e-05, Final residual = 6.67172e-13, No Iterations 2
smoothSolver:  Solving for H2O, Initial residual = 2.6176e-05, Final residual = 2.72459e-16, No Iterations 2
smoothSolver:  Solving for CH4, Initial residual = 2.6176e-05, Final residual = 1.41801e-12, No Iterations 2
smoothSolver:  Solving for CO2, Initial residual = 2.6176e-05, Final residual = 2.49008e-16, No Iterations 2
smoothSolver:  Solving for e, Initial residual = 5.522e-05, Final residual = 4.04285e-16, No Iterations 2
ExecutionTime = 2.97641 s  ClockTime = 3 s

Courant Number mean: 0.109748 max: 0.19483
deltaT = 3.03814e-06
Time = 3.01229e-05s

PIMPLE: Iteration 1
diagonal:  Solving for rho, Initial residual = 0, Final residual = 0, No Iterations 0
smoothSolver:  Solving for Ux, Initial residual = 0.0280818, Final residual = 9.67912e-14, No Iterations 2
smoothSolver:  Solving for Uy, Initial residual = 0.0280818, Final residual = 9.67912e-14, No Iterations 2
smoothSolver:  Solving for O2, Initial residual = 0.0287907, Final residual = 8.19522e-13, No Iterations 2
smoothSolver:  Solving for H2O, Initial residual = 0.0287907, Final residual = 2.88065e-13, No Iterations 2
smoothSolver:  Solving for CH4, Initial residual = 0.0287907, Final residual = 1.64172e-12, No Iterations 2
smoothSolver:  Solving for CO2, Initial residual = 0.0287907, Final residual = 2.88048e-13, No Iterations 2
smoothSolver:  Solving for e, Initial residual = 0.000425074, Final residual = 4.02873e-15, No Iterations 2
PIMPLE: Iteration 2
diagonal:  Solving for rho, Initial residual = 0, Final residual = 0, No Iterations 0
smoothSolver:  Solving for Ux, Initial residual = 0.00373843, Final residual = 9.60852e-15, No Iterations 2
smoothSolver:  Solving for Uy, Initial residual = 0.00373843, Final residual = 9.60892e-15, No Iterations 2
smoothSolver:  Solving for O2, Initial residual = 2.25643e-05, Final residual = 5.22473e-13, No Iterations 2
smoothSolver:  Solving for H2O, Initial residual = 2.25643e-05, Final residual = 2.29098e-16, No Iterations 2
smoothSolver:  Solving for CH4, Initial residual = 2.25643e-05, Final residual = 1.2612e-12, No Iterations 2
smoothSolver:  Solving for CO2, Initial residual = 2.25643e-05, Final residual = 2.2009e-16, No Iterations 2
smoothSolver:  Solving for e, Initial residual = 5.14726e-05, Final residual = 3.87597e-16, No Iterations 2
ExecutionTime = 3.2153 s  ClockTime = 3 s

Courant Number mean: 0.109761 max: 0.196297
deltaT = 3.03814e-06
Time = 3.3161e-05s

PIMPLE: Iteration 1
diagonal:  Solving for rho, Initial residual = 0, Final residual = 0, No Iterations 0
smoothSolver:  Solving for Ux, Initial residual = 0.0253951, Final residual = 8.72394e-14, No Iterations 2
smoothSolver:  Solving for Uy, Initial residual = 0.0253951, Final residual = 8.72387e-14, No Iterations 2
smoothSolver:  Solving for O2, Initial residual = 0.025981, Final residual = 7.00084e-13, No Iterations 2
smoothSolver:  Solving for H2O, Initial residual = 0.025981, Final residual = 2.6016e-13, No Iterations 2
smoothSolver:  Solving for CH4, Initial residual = 0.025981, Final residual = 1.49424e-12, No Iterations 2
smoothSolver:  Solving for CO2, Initial residual = 0.025981, Final residual = 2.6012e-13, No Iterations 2
smoothSolver:  Solving for e, Initial residual = 0.000423052, Final residual = 4.1802e-15, No Iterations 2
PIMPLE: Iteration 2
diagonal:  Solving for rho, Initial residual = 0, Final residual = 0, No Iterations 0
smoothSolver:  Solving for Ux, Initial residual = 0.00325301, Final residual = 9.07655e-15, No Iterations 2
smoothSolver:  Solving for Uy, Initial residual = 0.00325301, Final residual = 9.07684e-15, No Iterations 2
smoothSolver:  Solving for O2, Initial residual = 1.90381e-05, Final residual = 5.48283e-13, No Iterations 2
smoothSolver:  Solving for H2O, Initial residual = 1.90381e-05, Final residual = 2.10904e-16, No Iterations 2
smoothSolver:  Solving for CH4, Initial residual = 1.90381e-05, Final residual = 1.13577e-12, No Iterations 2
smoothSolver:  Solving for CO2, Initial residual = 1.90381e-05, Final residual = 1.97054e-16, No Iterations 2
smoothSolver:  Solving for e, Initial residual = 4.84292e-05, Final residual = 3.38555e-16, No Iterations 2
ExecutionTime = 3.44538 s  ClockTime = 3 s

Courant Number mean: 0.109774 max: 0.197712
deltaT = 3.03814e-06
Time = 3.61991e-05s

PIMPLE: Iteration 1
diagonal:  Solving for rho, Initial residual = 0, Final residual = 0, No Iterations 0
smoothSolver:  Solving for Ux, Initial residual = 0.0231953, Final residual = 7.92575e-14, No Iterations 2
smoothSolver:  Solving for Uy, Initial residual = 0.0231953, Final residual = 7.9259e-14, No Iterations 2
smoothSolver:  Solving for O2, Initial residual = 0.0236726, Final residual = 7.70192e-13, No Iterations 2
smoothSolver:  Solving for H2O, Initial residual = 0.0236726, Final residual = 2.37213e-13, No Iterations 2
smoothSolver:  Solving for CH4, Initial residual = 0.0236726, Final residual = 1.26975e-12, No Iterations 2
smoothSolver:  Solving for CO2, Initial residual = 0.0236726, Final residual = 2.37215e-13, No Iterations 2
smoothSolver:  Solving for e, Initial residual = 0.00042209, Final residual = 4.37923e-15, No Iterations 2
PIMPLE: Iteration 2
diagonal:  Solving for rho, Initial residual = 0, Final residual = 0, No Iterations 0
smoothSolver:  Solving for Ux, Initial residual = 0.00286393, Final residual = 8.52859e-15, No Iterations 2
smoothSolver:  Solving for Uy, Initial residual = 0.00286393, Final residual = 8.52827e-15, No Iterations 2
smoothSolver:  Solving for O2, Initial residual = 1.58151e-05, Final residual = 4.56064e-13, No Iterations 2
smoothSolver:  Solving for H2O, Initial residual = 1.58151e-05, Final residual = 1.90453e-16, No Iterations 2
smoothSolver:  Solving for CH4, Initial residual = 1.58151e-05, Final residual = 1.05936e-12, No Iterations 2
smoothSolver:  Solving for CO2, Initial residual = 1.58151e-05, Final residual = 1.47296e-16, No Iterations 2
smoothSolver:  Solving for e, Initial residual = 4.5784e-05, Final residual = 3.32887e-16, No Iterations 2
ExecutionTime = 3.67321 s  ClockTime = 4 s

Courant Number mean: 0.109788 max: 0.19906
deltaT = 3.03814e-06
Time = 3.92373e-05s

PIMPLE: Iteration 1
diagonal:  Solving for rho, Initial residual = 0, Final residual = 0, No Iterations 0
smoothSolver:  Solving for Ux, Initial residual = 0.0213712, Final residual = 7.24103e-14, No Iterations 2
smoothSolver:  Solving for Uy, Initial residual = 0.0213712, Final residual = 7.24088e-14, No Iterations 2
smoothSolver:  Solving for O2, Initial residual = 0.021742, Final residual = 6.29459e-13, No Iterations 2
smoothSolver:  Solving for H2O, Initial residual = 0.021742, Final residual = 2.18123e-13, No Iterations 2
smoothSolver:  Solving for CH4, Initial residual = 0.021742, Final residual = 1.15649e-12, No Iterations 2
smoothSolver:  Solving for CO2, Initial residual = 0.021742, Final residual = 2.18051e-13, No Iterations 2
smoothSolver:  Solving for e, Initial residual = 0.000422515, Final residual = 4.54344e-15, No Iterations 2
PIMPLE: Iteration 2
diagonal:  Solving for rho, Initial residual = 0, Final residual = 0, No Iterations 0
smoothSolver:  Solving for Ux, Initial residual = 0.00281287, Final residual = 7.98164e-15, No Iterations 2
smoothSolver:  Solving for Uy, Initial residual = 0.00281287, Final residual = 7.98073e-15, No Iterations 2
smoothSolver:  Solving for O2, Initial residual = 1.35813e-05, Final residual = 4.50697e-13, No Iterations 2
smoothSolver:  Solving for H2O, Initial residual = 1.35813e-05, Final residual = 1.33452e-16, No Iterations 2
smoothSolver:  Solving for CH4, Initial residual = 1.35813e-05, Final residual = 9.25267e-13, No Iterations 2
smoothSolver:  Solving for CO2, Initial residual = 1.35813e-05, Final residual = 1.57014e-16, No Iterations 2
smoothSolver:  Solving for e, Initial residual = 4.31788e-05, Final residual = 2.86238e-16, No Iterations 2
ExecutionTime = 3.90165 s  ClockTime = 4 s

Courant Number mean: 0.109802 max: 0.200293
deltaT = 2.89346e-06
Time = 4.21307e-05s

PIMPLE: Iteration 1
diagonal:  Solving for rho, Initial residual = 0, Final residual = 0, No Iterations 0
smoothSolver:  Solving for Ux, Initial residual = 0.0189197, Final residual = 5.74707e-14, No Iterations 2
smoothSolver:  Solving for Uy, Initial residual = 0.0189197, Final residual = 5.74702e-14, No Iterations 2
smoothSolver:  Solving for O2, Initial residual = 0.0191632, Final residual = 5.96457e-13, No Iterations 2
smoothSolver:  Solving for H2O, Initial residual = 0.0191632, Final residual = 1.74497e-13, No Iterations 2
smoothSolver:  Solving for CH4, Initial residual = 0.0191632, Final residual = 1.0597e-12, No Iterations 2
smoothSolver:  Solving for CO2, Initial residual = 0.0191632, Final residual = 1.74507e-13, No Iterations 2
smoothSolver:  Solving for e, Initial residual = 0.000404014, Final residual = 4.03694e-15, No Iterations 2
PIMPLE: Iteration 2
diagonal:  Solving for rho, Initial residual = 0, Final residual = 0, No Iterations 0
smoothSolver:  Solving for Ux, Initial residual = 0.00246928, Final residual = 6.14232e-15, No Iterations 2
smoothSolver:  Solving for Uy, Initial residual = 0.00246928, Final residual = 6.14238e-15, No Iterations 2
smoothSolver:  Solving for O2, Initial residual = 1.18712e-05, Final residual = 4.79296e-13, No Iterations 2
smoothSolver:  Solving for H2O, Initial residual = 1.18712e-05, Final residual = 1.29001e-16, No Iterations 2
smoothSolver:  Solving for CH4, Initial residual = 1.18712e-05, Final residual = 8.59019e-13, No Iterations 2
smoothSolver:  Solving for CO2, Initial residual = 1.18712e-05, Final residual = 1.13066e-16, No Iterations 2
smoothSolver:  Solving for e, Initial residual = 3.68863e-05, Final residual = 2.58979e-16, No Iterations 2
ExecutionTime = 4.12885 s  ClockTime = 4 s

Courant Number mean: 0.104586 max: 0.192133
deltaT = 2.89346e-06
Time = 4.50242e-05s

PIMPLE: Iteration 1
diagonal:  Solving for rho, Initial residual = 0, Final residual = 0, No Iterations 0
smoothSolver:  Solving for Ux, Initial residual = 0.0177651, Final residual = 5.32099e-14, No Iterations 2
smoothSolver:  Solving for Uy, Initial residual = 0.0177651, Final residual = 5.32106e-14, No Iterations 2
smoothSolver:  Solving for O2, Initial residual = 0.0178792, Final residual = 5.31769e-13, No Iterations 2
smoothSolver:  Solving for H2O, Initial residual = 0.0178792, Final residual = 1.62944e-13, No Iterations 2
smoothSolver:  Solving for CH4, Initial residual = 0.0178792, Final residual = 9.83976e-13, No Iterations 2
smoothSolver:  Solving for CO2, Initial residual = 0.0178792, Final residual = 1.62969e-13, No Iterations 2
smoothSolver:  Solving for e, Initial residual = 0.000405983, Final residual = 4.12895e-15, No Iterations 2
PIMPLE: Iteration 2
diagonal:  Solving for rho, Initial residual = 0, Final residual = 0, No Iterations 0
smoothSolver:  Solving for Ux, Initial residual = 0.00192541, Final residual = 5.79574e-15, No Iterations 2
smoothSolver:  Solving for Uy, Initial residual = 0.00192541, Final residual = 5.7969e-15, No Iterations 2
smoothSolver:  Solving for O2, Initial residual = 1.23594e-05, Final residual = 3.66815e-13, No Iterations 2
smoothSolver:  Solving for H2O, Initial residual = 1.23594e-05, Final residual = 1.73001e-16, No Iterations 2
smoothSolver:  Solving for CH4, Initial residual = 1.23594e-05, Final residual = 8.00655e-13, No Iterations 2
smoothSolver:  Solving for CO2, Initial residual = 1.23594e-05, Final residual = 1.24022e-16, No Iterations 2
smoothSolver:  Solving for e, Initial residual = 4.14536e-05, Final residual = 2.78389e-16, No Iterations 2
ExecutionTime = 4.35876 s  ClockTime = 4 s

Courant Number mean: 0.104599 max: 0.193456
deltaT = 2.89346e-06
Time = 4.79177e-05s

PIMPLE: Iteration 1
diagonal:  Solving for rho, Initial residual = 0, Final residual = 0, No Iterations 0
smoothSolver:  Solving for Ux, Initial residual = 0.0170644, Final residual = 4.91119e-14, No Iterations 2
smoothSolver:  Solving for Uy, Initial residual = 0.0170644, Final residual = 4.91116e-14, No Iterations 2
smoothSolver:  Solving for O2, Initial residual = 0.016757, Final residual = 5.53677e-13, No Iterations 2
smoothSolver:  Solving for H2O, Initial residual = 0.016757, Final residual = 1.52826e-13, No Iterations 2
smoothSolver:  Solving for CH4, Initial residual = 0.016757, Final residual = 9.34281e-13, No Iterations 2
smoothSolver:  Solving for CO2, Initial residual = 0.016757, Final residual = 1.52818e-13, No Iterations 2
smoothSolver:  Solving for e, Initial residual = 0.000408036, Final residual = 4.28103e-15, No Iterations 2
PIMPLE: Iteration 2
diagonal:  Solving for rho, Initial residual = 0, Final residual = 0, No Iterations 0
smoothSolver:  Solving for Ux, Initial residual = 0.00181168, Final residual = 4.78254e-15, No Iterations 2
smoothSolver:  Solving for Uy, Initial residual = 0.00181168, Final residual = 4.78222e-15, No Iterations 2
smoothSolver:  Solving for O2, Initial residual = 1.25678e-05, Final residual = 3.35748e-13, No Iterations 2
smoothSolver:  Solving for H2O, Initial residual = 1.25678e-05, Final residual = 1.07334e-16, No Iterations 2
smoothSolver:  Solving for CH4, Initial residual = 1.25678e-05, Final residual = 7.40348e-13, No Iterations 2
smoothSolver:  Solving for CO2, Initial residual = 1.25678e-05, Final residual = 1.02547e-16, No Iterations 2
smoothSolver:  Solving for e, Initial residual = 4.11155e-05, Final residual = 2.60776e-16, No Iterations 2
ExecutionTime = 4.58786 s  ClockTime = 5 s

Courant Number mean: 0.104611 max: 0.194629
deltaT = 2.89346e-06
Time = 5.08111e-05s

PIMPLE: Iteration 1
diagonal:  Solving for rho, Initial residual = 0, Final residual = 0, No Iterations 0
smoothSolver:  Solving for Ux, Initial residual = 0.0161984, Final residual = 4.59314e-14, No Iterations 2
smoothSolver:  Solving for Uy, Initial residual = 0.0161984, Final residual = 4.59316e-14, No Iterations 2
smoothSolver:  Solving for O2, Initial residual = 0.0157687, Final residual = 4.3827e-13, No Iterations 2
smoothSolver:  Solving for H2O, Initial residual = 0.0157687, Final residual = 1.44017e-13, No Iterations 2
smoothSolver:  Solving for CH4, Initial residual = 0.0157687, Final residual = 8.93692e-13, No Iterations 2
smoothSolver:  Solving for CO2, Initial residual = 0.0157687, Final residual = 1.43908e-13, No Iterations 2
smoothSolver:  Solving for e, Initial residual = 0.000416846, Final residual = 4.34348e-15, No Iterations 2
PIMPLE: Iteration 2
diagonal:  Solving for rho, Initial residual = 0, Final residual = 0, No Iterations 0
smoothSolver:  Solving for Ux, Initial residual = 0.00172505, Final residual = 4.20451e-15, No Iterations 2
smoothSolver:  Solving for Uy, Initial residual = 0.00172505, Final residual = 4.2054e-15, No Iterations 2
smoothSolver:  Solving for O2, Initial residual = 1.04364e-05, Final residual = 3.32539e-13, No Iterations 2
smoothSolver:  Solving for H2O, Initial residual = 1.04364e-05, Final residual = 8.83092e-17, No Iterations 2
smoothSolver:  Solving for CH4, Initial residual = 1.04364e-05, Final residual = 7.4066e-13, No Iterations 2
smoothSolver:  Solving for CO2, Initial residual = 1.04364e-05, Final residual = 1.17433e-16, No Iterations 2
smoothSolver:  Solving for e, Initial residual = 3.61583e-05, Final residual = 2.59695e-16, No Iterations 2
ExecutionTime = 4.81625 s  ClockTime = 5 s

Courant Number mean: 0.104623 max: 0.195698
deltaT = 2.89346e-06
Time = 5.37046e-05s

PIMPLE: Iteration 1
diagonal:  Solving for rho, Initial residual = 0, Final residual = 0, No Iterations 0
smoothSolver:  Solving for Ux, Initial residual = 0.0153087, Final residual = 4.32624e-14, No Iterations 2
smoothSolver:  Solving for Uy, Initial residual = 0.0153087, Final residual = 4.32619e-14, No Iterations 2
smoothSolver:  Solving for O2, Initial residual = 0.0148911, Final residual = 3.82928e-13, No Iterations 2
smoothSolver:  Solving for H2O, Initial residual = 0.0148911, Final residual = 1.36019e-13, No Iterations 2
smoothSolver:  Solving for CH4, Initial residual = 0.0148911, Final residual = 8.38613e-13, No Iterations 2
smoothSolver:  Solving for CO2, Initial residual = 0.0148911, Final residual = 1.36122e-13, No Iterations 2
smoothSolver:  Solving for e, Initial residual = 0.000425288, Final residual = 4.48275e-15, No Iterations 2
PIMPLE: Iteration 2
diagonal:  Solving for rho, Initial residual = 0, Final residual = 0, No Iterations 0
smoothSolver:  Solving for Ux, Initial residual = 0.00159662, Final residual = 3.77203e-15, No Iterations 2
smoothSolver:  Solving for Uy, Initial residual = 0.00159662, Final residual = 3.772e-15, No Iterations 2
smoothSolver:  Solving for O2, Initial residual = 8.60422e-06, Final residual = 3.13895e-13, No Iterations 2
smoothSolver:  Solving for H2O, Initial residual = 8.60422e-06, Final residual = 7.98831e-17, No Iterations 2
smoothSolver:  Solving for CH4, Initial residual = 8.60422e-06, Final residual = 6.76305e-13, No Iterations 2
smoothSolver:  Solving for CO2, Initial residual = 8.60422e-06, Final residual = 8.80202e-17, No Iterations 2
smoothSolver:  Solving for e, Initial residual = 3.20347e-05, Final residual = 2.5659e-16, No Iterations 2
ExecutionTime = 5.0459 s  ClockTime = 5 s

Courant Number mean: 0.104635 max: 0.196669
deltaT = 2.89346e-06
Time = 5.65981e-05s

PIMPLE: Iteration 1
diagonal:  Solving for rho, Initial residual = 0, Final residual = 0, No Iterations 0
smoothSolver:  Solving for Ux, Initial residual = 0.014468, Final residual = 4.09803e-14, No Iterations 2
smoothSolver:  Solving for Uy, Initial residual = 0.014468, Final residual = 4.09801e-14, No Iterations 2
smoothSolver:  Solving for O2, Initial residual = 0.0141066, Final residual = 3.44391e-13, No Iterations 2
smoothSolver:  Solving for H2O, Initial residual = 0.0141066, Final residual = 1.2902e-13, No Iterations 2
smoothSolver:  Solving for CH4, Initial residual = 0.0141066, Final residual = 7.73297e-13, No Iterations 2
smoothSolver:  Solving for CO2, Initial residual = 0.0141066, Final residual = 1.29007e-13, No Iterations 2
smoothSolver:  Solving for e, Initial residual = 0.000432498, Final residual = 4.58996e-15, No Iterations 2
PIMPLE: Iteration 2
diagonal:  Solving for rho, Initial residual = 0, Final residual = 0, No Iterations 0
smoothSolver:  Solving for Ux, Initial residual = 0.00148608, Final residual = 3.4707e-15, No Iterations 2
smoothSolver:  Solving for Uy, Initial residual = 0.00148608, Final residual = 3.47091e-15, No Iterations 2
smoothSolver:  Solving for O2, Initial residual = 7.80945e-06, Final residual = 2.63099e-13, No Iterations 2
smoothSolver:  Solving for H2O, Initial residual = 7.80945e-06, Final residual = 7.43262e-17, No Iterations 2
smoothSolver:  Solving for CH4, Initial residual = 7.80945e-06, Final residual = 6.49598e-13, No Iterations 2
smoothSolver:  Solving for CO2, Initial residual = 7.80945e-06, Final residual = 1.10233e-16, No Iterations 2
smoothSolver:  Solving for e, Initial residual = 2.87373e-05, Final residual = 2.89534e-16, No Iterations 2
ExecutionTime = 5.28155 s  ClockTime = 5 s

Courant Number mean: 0.104647 max: 0.197596
deltaT = 2.89346e-06
Time = 5.94915e-05s

PIMPLE: Iteration 1
diagonal:  Solving for rho, Initial residual = 0, Final residual = 0, No Iterations 0
smoothSolver:  Solving for Ux, Initial residual = 0.0136988, Final residual = 3.90017e-14, No Iterations 2
smoothSolver:  Solving for Uy, Initial residual = 0.0136988, Final residual = 3.90011e-14, No Iterations 2
smoothSolver:  Solving for O2, Initial residual = 0.0134012, Final residual = 3.77567e-13, No Iterations 2
smoothSolver:  Solving for H2O, Initial residual = 0.0134012, Final residual = 1.22685e-13, No Iterations 2
smoothSolver:  Solving for CH4, Initial residual = 0.0134012, Final residual = 7.50188e-13, No Iterations 2
smoothSolver:  Solving for CO2, Initial residual = 0.0134012, Final residual = 1.22662e-13, No Iterations 2
smoothSolver:  Solving for e, Initial residual = 0.000438337, Final residual = 4.69049e-15, No Iterations 2
PIMPLE: Iteration 2
diagonal:  Solving for rho, Initial residual = 0, Final residual = 0, No Iterations 0
smoothSolver:  Solving for Ux, Initial residual = 0.00148104, Final residual = 3.23681e-15, No Iterations 2
smoothSolver:  Solving for Uy, Initial residual = 0.00148104, Final residual = 3.23655e-15, No Iterations 2
smoothSolver:  Solving for O2, Initial residual = 7.3749e-06, Final residual = 2.55068e-13, No Iterations 2
smoothSolver:  Solving for H2O, Initial residual = 7.3749e-06, Final residual = 8.81067e-17, No Iterations 2
smoothSolver:  Solving for CH4, Initial residual = 7.3749e-06, Final residual = 5.97588e-13, No Iterations 2
smoothSolver:  Solving for CO2, Initial residual = 7.3749e-06, Final residual = 1.07288e-16, No Iterations 2
smoothSolver:  Solving for e, Initial residual = 2.71327e-05, Final residual = 2.57304e-16, No Iterations 2
ExecutionTime = 5.5096 s  ClockTime = 6 s

Courant Number mean: 0.104659 max: 0.198474
deltaT = 2.89346e-06
Time = 6.2385e-05s

PIMPLE: Iteration 1
diagonal:  Solving for rho, Initial residual = 0, Final residual = 0, No Iterations 0
smoothSolver:  Solving for Ux, Initial residual = 0.0130075, Final residual = 3.71949e-14, No Iterations 2
smoothSolver:  Solving for Uy, Initial residual = 0.0130075, Final residual = 3.71957e-14, No Iterations 2
smoothSolver:  Solving for O2, Initial residual = 0.0127633, Final residual = 3.46229e-13, No Iterations 2
smoothSolver:  Solving for H2O, Initial residual = 0.0127633, Final residual = 1.16975e-13, No Iterations 2
smoothSolver:  Solving for CH4, Initial residual = 0.0127633, Final residual = 6.61037e-13, No Iterations 2
smoothSolver:  Solving for CO2, Initial residual = 0.0127633, Final residual = 1.16927e-13, No Iterations 2
smoothSolver:  Solving for e, Initial residual = 0.000442969, Final residual = 4.79462e-15, No Iterations 2
PIMPLE: Iteration 2
diagonal:  Solving for rho, Initial residual = 0, Final residual = 0, No Iterations 0
smoothSolver:  Solving for Ux, Initial residual = 0.00143989, Final residual = 3.03011e-15, No Iterations 2
smoothSolver:  Solving for Uy, Initial residual = 0.00143989, Final residual = 3.02979e-15, No Iterations 2
smoothSolver:  Solving for O2, Initial residual = 6.91826e-06, Final residual = 2.80054e-13, No Iterations 2
smoothSolver:  Solving for H2O, Initial residual = 6.91826e-06, Final residual = 1.09183e-16, No Iterations 2
smoothSolver:  Solving for CH4, Initial residual = 6.91826e-06, Final residual = 5.61116e-13, No Iterations 2
smoothSolver:  Solving for CO2, Initial residual = 6.91826e-06, Final residual = 8.84645e-17, No Iterations 2
smoothSolver:  Solving for e, Initial residual = 2.69955e-05, Final residual = 2.55331e-16, No Iterations 2
ExecutionTime = 5.7391 s  ClockTime = 6 s

Courant Number mean: 0.104671 max: 0.199285
deltaT = 2.89346e-06
Time = 6.52784e-05s

PIMPLE: Iteration 1
diagonal:  Solving for rho, Initial residual = 0, Final residual = 0, No Iterations 0
smoothSolver:  Solving for Ux, Initial residual = 0.0123937, Final residual = 3.55228e-14, No Iterations 2
smoothSolver:  Solving for Uy, Initial residual = 0.0123937, Final residual = 3.55233e-14, No Iterations 2
smoothSolver:  Solving for O2, Initial residual = 0.0121838, Final residual = 4.00894e-13, No Iterations 2
smoothSolver:  Solving for H2O, Initial residual = 0.0121838, Final residual = 1.11744e-13, No Iterations 2
smoothSolver:  Solving for CH4, Initial residual = 0.0121838, Final residual = 6.52637e-13, No Iterations 2
smoothSolver:  Solving for CO2, Initial residual = 0.0121838, Final residual = 1.11747e-13, No Iterations 2
smoothSolver:  Solving for e, Initial residual = 0.000446565, Final residual = 4.86053e-15, No Iterations 2
PIMPLE: Iteration 2
diagonal:  Solving for rho, Initial residual = 0, Final residual = 0, No Iterations 0
smoothSolver:  Solving for Ux, Initial residual = 0.0013781, Final residual = 2.90804e-15, No Iterations 2
smoothSolver:  Solving for Uy, Initial residual = 0.0013781, Final residual = 2.90792e-15, No Iterations 2
smoothSolver:  Solving for O2, Initial residual = 6.44777e-06, Final residual = 2.42243e-13, No Iterations 2
smoothSolver:  Solving for H2O, Initial residual = 6.44777e-06, Final residual = 1.11771e-16, No Iterations 2
smoothSolver:  Solving for CH4, Initial residual = 6.44777e-06, Final residual = 5.29312e-13, No Iterations 2
smoothSolver:  Solving for CO2, Initial residual = 6.44777e-06, Final residual = 7.51464e-17, No Iterations 2
smoothSolver:  Solving for e, Initial residual = 2.70455e-05, Final residual = 2.80138e-16, No Iterations 2
ExecutionTime = 5.96813 s  ClockTime = 6 s

Courant Number mean: 0.104684 max: 0.200037
deltaT = 2.89346e-06
Time = 6.81719e-05s

PIMPLE: Iteration 1
diagonal:  Solving for rho, Initial residual = 0, Final residual = 0, No Iterations 0
smoothSolver:  Solving for Ux, Initial residual = 0.0118529, Final residual = 3.39783e-14, No Iterations 2
smoothSolver:  Solving for Uy, Initial residual = 0.0118529, Final residual = 3.39789e-14, No Iterations 2
smoothSolver:  Solving for O2, Initial residual = 0.0116549, Final residual = 3.34386e-13, No Iterations 2
smoothSolver:  Solving for H2O, Initial residual = 0.0116549, Final residual = 1.06964e-13, No Iterations 2
smoothSolver:  Solving for CH4, Initial residual = 0.0116549, Final residual = 6.22515e-13, No Iterations 2
smoothSolver:  Solving for CO2, Initial residual = 0.0116549, Final residual = 1.07019e-13, No Iterations 2
smoothSolver:  Solving for e, Initial residual = 0.000449809, Final residual = 4.92137e-15, No Iterations 2
PIMPLE: Iteration 2
diagonal:  Solving for rho, Initial residual = 0, Final residual = 0, No Iterations 0
smoothSolver:  Solving for Ux, Initial residual = 0.00131777, Final residual = 2.83763e-15, No Iterations 2
smoothSolver:  Solving for Uy, Initial residual = 0.00131777, Final residual = 2.83773e-15, No Iterations 2
smoothSolver:  Solving for O2, Initial residual = 5.96107e-06, Final residual = 2.29415e-13, No Iterations 2
smoothSolver:  Solving for H2O, Initial residual = 5.96107e-06, Final residual = 6.03147e-17, No Iterations 2
smoothSolver:  Solving for CH4, Initial residual = 5.96107e-06, Final residual = 5.28161e-13, No Iterations 2
smoothSolver:  Solving for CO2, Initial residual = 5.96107e-06, Final residual = 5.73806e-17, No Iterations 2
smoothSolver:  Solving for e, Initial residual = 2.69656e-05, Final residual = 2.75532e-16, No Iterations 2
ExecutionTime = 6.19597 s  ClockTime = 6 s

Courant Number mean: 0.104697 max: 0.200699
deltaT = 2.65234e-06
Time = 7.08243e-05s

PIMPLE: Iteration 1
diagonal:  Solving for rho, Initial residual = 0, Final residual = 0, No Iterations 0
smoothSolver:  Solving for Ux, Initial residual = 0.0104496, Final residual = 2.50597e-14, No Iterations 2
smoothSolver:  Solving for Uy, Initial residual = 0.0104496, Final residual = 2.50601e-14, No Iterations 2
smoothSolver:  Solving for O2, Initial residual = 0.0102479, Final residual = 2.26592e-13, No Iterations 2
smoothSolver:  Solving for H2O, Initial residual = 0.0102479, Final residual = 7.90993e-14, No Iterations 2
smoothSolver:  Solving for CH4, Initial residual = 0.0102479, Final residual = 5.30263e-13, No Iterations 2
smoothSolver:  Solving for CO2, Initial residual = 0.0102479, Final residual = 7.91058e-14, No Iterations 2
smoothSolver:  Solving for e, Initial residual = 0.000415551, Final residual = 3.86549e-15, No Iterations 2
PIMPLE: Iteration 2
diagonal:  Solving for rho, Initial residual = 0, Final residual = 0, No Iterations 0
smoothSolver:  Solving for Ux, Initial residual = 0.0010456, Final residual = 1.9479e-15, No Iterations 2
smoothSolver:  Solving for Uy, Initial residual = 0.0010456, Final residual = 1.948e-15, No Iterations 2
smoothSolver:  Solving for O2, Initial residual = 4.61631e-06, Final residual = 2.53271e-13, No Iterations 2
smoothSolver:  Solving for H2O, Initial residual = 4.61631e-06, Final residual = 8.53918e-17, No Iterations 2
smoothSolver:  Solving for CH4, Initial residual = 4.61631e-06, Final residual = 4.81748e-13, No Iterations 2
smoothSolver:  Solving for CO2, Initial residual = 4.61631e-06, Final residual = 9.89265e-17, No Iterations 2
smoothSolver:  Solving for e, Initial residual = 2.24301e-05, Final residual = 2.46549e-16, No Iterations 2
ExecutionTime = 6.42568 s  ClockTime = 6 s

Courant Number mean: 0.0959828 max: 0.184702
deltaT = 2.65234e-06
Time = 7.34766e-05s

PIMPLE: Iteration 1
diagonal:  Solving for rho, Initial residual = 0, Final residual = 0, No Iterations 0
smoothSolver:  Solving for Ux, Initial residual = 0.0101146, Final residual = 2.40766e-14, No Iterations 2
smoothSolver:  Solving for Uy, Initial residual = 0.0101146, Final residual = 2.4077e-14, No Iterations 2
smoothSolver:  Solving for O2, Initial residual = 0.00987151, Final residual = 2.62011e-13, No Iterations 2
smoothSolver:  Solving for H2O, Initial residual = 0.00987151, Final residual = 7.63054e-14, No Iterations 2
smoothSolver:  Solving for CH4, Initial residual = 0.00987151, Final residual = 5.04354e-13, No Iterations 2
smoothSolver:  Solving for CO2, Initial residual = 0.00987151, Final residual = 7.62529e-14, No Iterations 2
smoothSolver:  Solving for e, Initial residual = 0.000418102, Final residual = 3.90518e-15, No Iterations 2
PIMPLE: Iteration 2
diagonal:  Solving for rho, Initial residual = 0, Final residual = 0, No Iterations 0
smoothSolver:  Solving for Ux, Initial residual = 0.00101024, Final residual = 1.95589e-15, No Iterations 2
smoothSolver:  Solving for Uy, Initial residual = 0.00101024, Final residual = 1.95633e-15, No Iterations 2
smoothSolver:  Solving for O2, Initial residual = 4.37129e-06, Final residual = 2.10144e-13, No Iterations 2
smoothSolver:  Solving for H2O, Initial residual = 4.37129e-06, Final residual = 4.1347e-17, No Iterations 2
smoothSolver:  Solving for CH4, Initial residual = 4.37129e-06, Final residual = 4.40064e-13, No Iterations 2
smoothSolver:  Solving for CO2, Initial residual = 4.37129e-06, Final residual = 8.84683e-17, No Iterations 2
smoothSolver:  Solving for e, Initial residual = 2.64215e-05, Final residual = 2.57589e-16, No Iterations 2
ExecutionTime = 6.65282 s  ClockTime = 7 s

Courant Number mean: 0.0959928 max: 0.185427
deltaT = 2.65234e-06
Time = 7.61289e-05s

PIMPLE: Iteration 1
diagonal:  Solving for rho, Initial residual = 0, Final residual = 0, No Iterations 0
smoothSolver:  Solving for Ux, Initial residual = 0.0100173, Final residual = 2.3011e-14, No Iterations 2
smoothSolver:  Solving for Uy, Initial residual = 0.0100173, Final residual = 2.30118e-14, No Iterations 2
smoothSolver:  Solving for O2, Initial residual = 0.00952196, Final residual = 2.88328e-13, No Iterations 2
smoothSolver:  Solving for H2O, Initial residual = 0.00952196, Final residual = 7.36331e-14, No Iterations 2
smoothSolver:  Solving for CH4, Initial residual = 0.00952196, Final residual = 5.14667e-13, No Iterations 2
smoothSolver:  Solving for CO2, Initial residual = 0.00952196, Final residual = 7.3704e-14, No Iterations 2
smoothSolver:  Solving for e, Initial residual = 0.000421042, Final residual = 3.88878e-15, No Iterations 2
PIMPLE: Iteration 2
diagonal:  Solving for rho, Initial residual = 0, Final residual = 0, No Iterations 0
smoothSolver:  Solving for Ux, Initial residual = 0.0008876, Final residual = 1.79845e-15, No Iterations 2
smoothSolver:  Solving for Uy, Initial residual = 0.0008876, Final residual = 1.79768e-15, No Iterations 2
smoothSolver:  Solving for O2, Initial residual = 4.2559e-06, Final residual = 2.08864e-13, No Iterations 2
smoothSolver:  Solving for H2O, Initial residual = 4.2559e-06, Final residual = 7.82337e-17, No Iterations 2
smoothSolver:  Solving for CH4, Initial residual = 4.2559e-06, Final residual = 4.11159e-13, No Iterations 2
smoothSolver:  Solving for CO2, Initial residual = 4.2559e-06, Final residual = 5.95587e-17, No Iterations 2
smoothSolver:  Solving for e, Initial residual = 2.59263e-05, Final residual = 2.33607e-16, No Iterations 2
ExecutionTime = 6.88168 s  ClockTime = 7 s

Courant Number mean: 0.0960023 max: 0.186118
deltaT = 2.65234e-06
Time = 7.87813e-05s

PIMPLE: Iteration 1
diagonal:  Solving for rho, Initial residual = 0, Final residual = 0, No Iterations 0
smoothSolver:  Solving for Ux, Initial residual = 0.00992521, Final residual = 2.2363e-14, No Iterations 2
smoothSolver:  Solving for Uy, Initial residual = 0.00992521, Final residual = 2.23638e-14, No Iterations 2
smoothSolver:  Solving for O2, Initial residual = 0.00919659, Final residual = 2.83302e-13, No Iterations 2
smoothSolver:  Solving for H2O, Initial residual = 0.00919659, Final residual = 7.12047e-14, No Iterations 2
smoothSolver:  Solving for CH4, Initial residual = 0.00919659, Final residual = 4.87638e-13, No Iterations 2
smoothSolver:  Solving for CO2, Initial residual = 0.00919659, Final residual = 7.11747e-14, No Iterations 2
smoothSolver:  Solving for e, Initial residual = 0.000423755, Final residual = 3.98185e-15, No Iterations 2
PIMPLE: Iteration 2
diagonal:  Solving for rho, Initial residual = 0, Final residual = 0, No Iterations 0
smoothSolver:  Solving for Ux, Initial residual = 0.000782329, Final residual = 1.61308e-15, No Iterations 2
smoothSolver:  Solving for Uy, Initial residual = 0.000782329, Final residual = 1.61315e-15, No Iterations 2
smoothSolver:  Solving for O2, Initial residual = 4.23153e-06, Final residual = 2.30041e-13, No Iterations 2
smoothSolver:  Solving for H2O, Initial residual = 4.23153e-06, Final residual = 5.54649e-17, No Iterations 2
smoothSolver:  Solving for CH4, Initial residual = 4.23153e-06, Final residual = 4.26608e-13, No Iterations 2
smoothSolver:  Solving for CO2, Initial residual = 4.23153e-06, Final residual = 1.03037e-16, No Iterations 2
smoothSolver:  Solving for e, Initial residual = 2.46231e-05, Final residual = 1.95241e-16, No Iterations 2
ExecutionTime = 7.11825 s  ClockTime = 7 s

Courant Number mean: 0.0960119 max: 0.186778
deltaT = 2.65234e-06
Time = 8.14336e-05s

PIMPLE: Iteration 1
diagonal:  Solving for rho, Initial residual = 0, Final residual = 0, No Iterations 0
smoothSolver:  Solving for Ux, Initial residual = 0.009632, Final residual = 2.16894e-14, No Iterations 2
smoothSolver:  Solving for Uy, Initial residual = 0.009632, Final residual = 2.16902e-14, No Iterations 2
smoothSolver:  Solving for O2, Initial residual = 0.00889313, Final residual = 2.59575e-13, No Iterations 2
smoothSolver:  Solving for H2O, Initial residual = 0.00889313, Final residual = 6.88413e-14, No Iterations 2
smoothSolver:  Solving for CH4, Initial residual = 0.00889313, Final residual = 4.3758e-13, No Iterations 2
smoothSolver:  Solving for CO2, Initial residual = 0.00889313, Final residual = 6.8905e-14, No Iterations 2
smoothSolver:  Solving for e, Initial residual = 0.000426626, Final residual = 3.9977e-15, No Iterations 2
PIMPLE: Iteration 2
diagonal:  Solving for rho, Initial residual = 0, Final residual = 0, No Iterations 0
smoothSolver:  Solving for Ux, Initial residual = 0.000773906, Final residual = 1.50377e-15, No Iterations 2
smoothSolver:  Solving for Uy, Initial residual = 0.000773906, Final residual = 1.50371e-15, No Iterations 2
smoothSolver:  Solving for O2, Initial residual = 4.05394e-06, Final residual = 2.09627e-13, No Iterations 2
smoothSolver:  Solving for H2O, Initial residual = 4.05394e-06, Final residual = 1.15755e-16, No Iterations 2
smoothSolver:  Solving for CH4, Initial residual = 4.05394e-06, Final residual = 3.96575e-13, No Iterations 2
smoothSolver:  Solving for CO2, Initial residual = 4.05394e-06, Final residual = 7.41732e-17, No Iterations 2
smoothSolver:  Solving for e, Initial residual = 2.32838e-05, Final residual = 2.04085e-16, No Iterations 2
ExecutionTime = 7.34657 s  ClockTime = 7 s

Courant Number mean: 0.0960216 max: 0.187394
deltaT = 2.65234e-06
Time = 8.4086e-05s

PIMPLE: Iteration 1
diagonal:  Solving for rho, Initial residual = 0, Final residual = 0, No Iterations 0
smoothSolver:  Solving for Ux, Initial residual = 0.00932315, Final residual = 2.10501e-14, No Iterations 2
smoothSolver:  Solving for Uy, Initial residual = 0.00932315, Final residual = 2.10504e-14, No Iterations 2
smoothSolver:  Solving for O2, Initial residual = 0.00860932, Final residual = 2.73048e-13, No Iterations 2
smoothSolver:  Solving for H2O, Initial residual = 0.00860932, Final residual = 6.67223e-14, No Iterations 2
smoothSolver:  Solving for CH4, Initial residual = 0.00860932, Final residual = 4.39175e-13, No Iterations 2
smoothSolver:  Solving for CO2, Initial residual = 0.00860932, Final residual = 6.6728e-14, No Iterations 2
smoothSolver:  Solving for e, Initial residual = 0.000429409, Final residual = 4.03228e-15, No Iterations 2
PIMPLE: Iteration 2
diagonal:  Solving for rho, Initial residual = 0, Final residual = 0, No Iterations 0
smoothSolver:  Solving for Ux, Initial residual = 0.000778406, Final residual = 1.4302e-15, No Iterations 2
smoothSolver:  Solving for Uy, Initial residual = 0.000778406, Final residual = 1.43035e-15, No Iterations 2
smoothSolver:  Solving for O2, Initial residual = 3.86677e-06, Final residual = 1.96772e-13, No Iterations 2
smoothSolver:  Solving for H2O, Initial residual = 3.86677e-06, Final residual = 3.37819e-17, No Iterations 2
smoothSolver:  Solving for CH4, Initial residual = 3.86677e-06, Final residual = 4.05588e-13, No Iterations 2
smoothSolver:  Solving for CO2, Initial residual = 3.86677e-06, Final residual = 4.6394e-17, No Iterations 2
smoothSolver:  Solving for e, Initial residual = 2.21363e-05, Final residual = 2.09411e-16, No Iterations 2
ExecutionTime = 7.57457 s  ClockTime = 8 s

Courant Number mean: 0.0960314 max: 0.187967
deltaT = 2.65234e-06
Time = 8.67383e-05s

PIMPLE: Iteration 1
diagonal:  Solving for rho, Initial residual = 0, Final residual = 0, No Iterations 0
smoothSolver:  Solving for Ux, Initial residual = 0.00900699, Final residual = 2.0417e-14, No Iterations 2
smoothSolver:  Solving for Uy, Initial residual = 0.00900699, Final residual = 2.04173e-14, No Iterations 2
smoothSolver:  Solving for O2, Initial residual = 0.0083433, Final residual = 2.78594e-13, No Iterations 2
smoothSolver:  Solving for H2O, Initial residual = 0.0083433, Final residual = 6.47147e-14, No Iterations 2
smoothSolver:  Solving for CH4, Initial residual = 0.0083433, Final residual = 4.59894e-13, No Iterations 2
smoothSolver:  Solving for CO2, Initial residual = 0.0083433, Final residual = 6.47314e-14, No Iterations 2
smoothSolver:  Solving for e, Initial residual = 0.000431801, Final residual = 4.08459e-15, No Iterations 2
PIMPLE: Iteration 2
diagonal:  Solving for rho, Initial residual = 0, Final residual = 0, No Iterations 0
smoothSolver:  Solving for Ux, Initial residual = 0.000782291, Final residual = 1.3717e-15, No Iterations 2
smoothSolver:  Solving for Uy, Initial residual = 0.000782291, Final residual = 1.37158e-15, No Iterations 2
smoothSolver:  Solving for O2, Initial residual = 3.67006e-06, Final residual = 1.94296e-13, No Iterations 2
smoothSolver:  Solving for H2O, Initial residual = 3.67005e-06, Final residual = 6.91964e-17, No Iterations 2
smoothSolver:  Solving for CH4, Initial residual = 3.67005e-06, Final residual = 3.77319e-13, No Iterations 2
smoothSolver:  Solving for CO2, Initial residual = 3.67005e-06, Final residual = 5.62584e-17, No Iterations 2
smoothSolver:  Solving for e, Initial residual = 2.11739e-05, Final residual = 2.37704e-16, No Iterations 2
ExecutionTime = 7.80329 s  ClockTime = 8 s

Courant Number mean: 0.0960413 max: 0.188491
deltaT = 2.65234e-06
Time = 8.93906e-05s

PIMPLE: Iteration 1
diagonal:  Solving for rho, Initial residual = 0, Final residual = 0, No Iterations 0
smoothSolver:  Solving for Ux, Initial residual = 0.00869499, Final residual = 1.98232e-14, No Iterations 2
smoothSolver:  Solving for Uy, Initial residual = 0.00869499, Final residual = 1.98224e-14, No Iterations 2
smoothSolver:  Solving for O2, Initial residual = 0.00809347, Final residual = 2.58486e-13, No Iterations 2
smoothSolver:  Solving for H2O, Initial residual = 0.00809347, Final residual = 6.28805e-14, No Iterations 2
smoothSolver:  Solving for CH4, Initial residual = 0.00809347, Final residual = 4.25413e-13, No Iterations 2
smoothSolver:  Solving for CO2, Initial residual = 0.00809347, Final residual = 6.28595e-14, No Iterations 2
smoothSolver:  Solving for e, Initial residual = 0.000433629, Final residual = 4.14161e-15, No Iterations 2
PIMPLE: Iteration 2
diagonal:  Solving for rho, Initial residual = 0, Final residual = 0, No Iterations 0
smoothSolver:  Solving for Ux, Initial residual = 0.000772772, Final residual = 1.33093e-15, No Iterations 2
smoothSolver:  Solving for Uy, Initial residual = 0.000772772, Final residual = 1.33086e-15, No Iterations 2
smoothSolver:  Solving for O2, Initial residual = 3.49078e-06, Final residual = 2.00931e-13, No Iterations 2
smoothSolver:  Solving for H2O, Initial residual = 3.49078e-06, Final residual = 3.65589e-17, No Iterations 2
smoothSolver:  Solving for CH4, Initial residual = 3.49078e-06, Final residual = 3.60107e-13, No Iterations 2
smoothSolver:  Solving for CO2, Initial residual = 3.49078e-06, Final residual = 7.67007e-17, No Iterations 2
smoothSolver:  Solving for e, Initial residual = 2.03962e-05, Final residual = 2.27883e-16, No Iterations 2
ExecutionTime = 8.03056 s  ClockTime = 8 s

Courant Number mean: 0.0960514 max: 0.189008
deltaT = 2.65234e-06
Time = 9.2043e-05s

PIMPLE: Iteration 1
diagonal:  Solving for rho, Initial residual = 0, Final residual = 0, No Iterations 0
smoothSolver:  Solving for Ux, Initial residual = 0.00839278, Final residual = 1.92521e-14, No Iterations 2
smoothSolver:  Solving for Uy, Initial residual = 0.00839278, Final residual = 1.92532e-14, No Iterations 2
smoothSolver:  Solving for O2, Initial residual = 0.00785839, Final residual = 2.54351e-13, No Iterations 2
smoothSolver:  Solving for H2O, Initial residual = 0.00785839, Final residual = 6.10782e-14, No Iterations 2
smoothSolver:  Solving for CH4, Initial residual = 0.00785839, Final residual = 4.22611e-13, No Iterations 2
smoothSolver:  Solving for CO2, Initial residual = 0.00785839, Final residual = 6.10701e-14, No Iterations 2
smoothSolver:  Solving for e, Initial residual = 0.000434949, Final residual = 4.16478e-15, No Iterations 2
PIMPLE: Iteration 2
diagonal:  Solving for rho, Initial residual = 0, Final residual = 0, No Iterations 0
smoothSolver:  Solving for Ux, Initial residual = 0.000758127, Final residual = 1.27968e-15, No Iterations 2
smoothSolver:  Solving for Uy, Initial residual = 0.000758127, Final residual = 1.27967e-15, No Iterations 2
smoothSolver:  Solving for O2, Initial residual = 3.50423e-06, Final residual = 2.22513e-13, No Iterations 2
smoothSolver:  Solving for H2O, Initial residual = 3.50423e-06, Final residual = 3.89145e-17, No Iterations 2
smoothSolver:  Solving for CH4, Initial residual = 3.50423e-06, Final residual = 3.67378e-13, No Iterations 2
smoothSolver:  Solving for CO2, Initial residual = 3.50423e-06, Final residual = 7.03647e-17, No Iterations 2
smoothSolver:  Solving for e, Initial residual = 1.98097e-05, Final residual = 2.54001e-16, No Iterations 2
ExecutionTime = 8.25922 s  ClockTime = 8 s

Courant Number mean: 0.0960616 max: 0.189606
deltaT = 2.65234e-06
Time = 9.46953e-05s

PIMPLE: Iteration 1
diagonal:  Solving for rho, Initial residual = 0, Final residual = 0, No Iterations 0
smoothSolver:  Solving for Ux, Initial residual = 0.0080967, Final residual = 1.8728e-14, No Iterations 2
smoothSolver:  Solving for Uy, Initial residual = 0.0080967, Final residual = 1.87288e-14, No Iterations 2
smoothSolver:  Solving for O2, Initial residual = 0.0076368, Final residual = 2.54149e-13, No Iterations 2
smoothSolver:  Solving for H2O, Initial residual = 0.0076368, Final residual = 5.9444e-14, No Iterations 2
smoothSolver:  Solving for CH4, Initial residual = 0.0076368, Final residual = 4.11749e-13, No Iterations 2
smoothSolver:  Solving for CO2, Initial residual = 0.0076368, Final residual = 5.93501e-14, No Iterations 2
smoothSolver:  Solving for e, Initial residual = 0.000436204, Final residual = 4.16444e-15, No Iterations 2
PIMPLE: Iteration 2
diagonal:  Solving for rho, Initial residual = 0, Final residual = 0, No Iterations 0
smoothSolver:  Solving for Ux, Initial residual = 0.000725419, Final residual = 1.24285e-15, No Iterations 2
smoothSolver:  Solving for Uy, Initial residual = 0.000725419, Final residual = 1.24282e-15, No Iterations 2
smoothSolver:  Solving for O2, Initial residual = 3.43187e-06, Final residual = 1.94313e-13, No Iterations 2
smoothSolver:  Solving for H2O, Initial residual = 3.43187e-06, Final residual = 3.9276e-17, No Iterations 2
smoothSolver:  Solving for CH4, Initial residual = 3.43187e-06, Final residual = 3.41404e-13, No Iterations 2
smoothSolver:  Solving for CO2, Initial residual = 3.43187e-06, Final residual = 6.99265e-17, No Iterations 2
smoothSolver:  Solving for e, Initial residual = 1.89793e-05, Final residual = 2.46265e-16, No Iterations 2
ExecutionTime = 8.48637 s  ClockTime = 9 s

Courant Number mean: 0.096072 max: 0.190146
deltaT = 2.65234e-06
Time = 9.73477e-05s

PIMPLE: Iteration 1
diagonal:  Solving for rho, Initial residual = 0, Final residual = 0, No Iterations 0
smoothSolver:  Solving for Ux, Initial residual = 0.00785816, Final residual = 1.82017e-14, No Iterations 2
smoothSolver:  Solving for Uy, Initial residual = 0.00785816, Final residual = 1.82013e-14, No Iterations 2
smoothSolver:  Solving for O2, Initial residual = 0.00742747, Final residual = 1.8868e-13, No Iterations 2
smoothSolver:  Solving for H2O, Initial residual = 0.00742747, Final residual = 5.78463e-14, No Iterations 2
smoothSolver:  Solving for CH4, Initial residual = 0.00742747, Final residual = 3.8479e-13, No Iterations 2
smoothSolver:  Solving for CO2, Initial residual = 0.00742747, Final residual = 5.7825e-14, No Iterations 2
smoothSolver:  Solving for e, Initial residual = 0.000436888, Final residual = 4.21133e-15, No Iterations 2
PIMPLE: Iteration 2
diagonal:  Solving for rho, Initial residual = 0, Final residual = 0, No Iterations 0
smoothSolver:  Solving for Ux, Initial residual = 0.000719982, Final residual = 1.19826e-15, No Iterations 2
smoothSolver:  Solving for Uy, Initial residual = 0.000719982, Final residual = 1.19855e-15, No Iterations 2
smoothSolver:  Solving for O2, Initial residual = 3.34364e-06, Final residual = 1.78768e-13, No Iterations 2
smoothSolver:  Solving for H2O, Initial residual = 3.34364e-06, Final residual = 4.13656e-17, No Iterations 2
smoothSolver:  Solving for CH4, Initial residual = 3.34364e-06, Final residual = 3.29874e-13, No Iterations 2
smoothSolver:  Solving for CO2, Initial residual = 3.34364e-06, Final residual = 5.33566e-17, No Iterations 2
smoothSolver:  Solving for e, Initial residual = 1.86276e-05, Final residual = 2.48338e-16, No Iterations 2
ExecutionTime = 8.71482 s  ClockTime = 9 s

Courant Number mean: 0.0960825 max: 0.190625
deltaT = 2.65234e-06
Time = 0.0001s

PIMPLE: Iteration 1
diagonal:  Solving for rho, Initial residual = 0, Final residual = 0, No Iterations 0
smoothSolver:  Solving for Ux, Initial residual = 0.00765025, Final residual = 1.76884e-14, No Iterations 2
smoothSolver:  Solving for Uy, Initial residual = 0.00765025, Final residual = 1.76884e-14, No Iterations 2
smoothSolver:  Solving for O2, Initial residual = 0.00722935, Final residual = 1.75336e-13, No Iterations 2
smoothSolver:  Solving for H2O, Initial residual = 0.00722935, Final residual = 5.63162e-14, No Iterations 2
smoothSolver:  Solving for CH4, Initial residual = 0.00722935, Final residual = 3.84181e-13, No Iterations 2
smoothSolver:  Solving for CO2, Initial residual = 0.00722935, Final residual = 5.63185e-14, No Iterations 2
smoothSolver:  Solving for e, Initial residual = 0.000438084, Final residual = 4.20021e-15, No Iterations 2
PIMPLE: Iteration 2
diagonal:  Solving for rho, Initial residual = 0, Final residual = 0, No Iterations 0
smoothSolver:  Solving for Ux, Initial residual = 0.000713904, Final residual = 1.1691e-15, No Iterations 2
smoothSolver:  Solving for Uy, Initial residual = 0.000713904, Final residual = 1.16802e-15, No Iterations 2
smoothSolver:  Solving for O2, Initial residual = 3.26698e-06, Final residual = 1.91916e-13, No Iterations 2
smoothSolver:  Solving for H2O, Initial residual = 3.26698e-06, Final residual = 6.85393e-17, No Iterations 2
smoothSolver:  Solving for CH4, Initial residual = 3.26698e-06, Final residual = 3.26038e-13, No Iterations 2
smoothSolver:  Solving for CO2, Initial residual = 3.26698e-06, Final residual = 4.50783e-17, No Iterations 2
smoothSolver:  Solving for e, Initial residual = 1.90979e-05, Final residual = 2.41425e-16, No Iterations 2
ExecutionTime = 9.05248 s  ClockTime = 10 s

Courant Number mean: 0.0960931 max: 0.191043
deltaT = 2.7027e-06
Time = 0.000102703s

PIMPLE: Iteration 1
diagonal:  Solving for rho, Initial residual = 0, Final residual = 0, No Iterations 0
smoothSolver:  Solving for Ux, Initial residual = 0.00760149, Final residual = 1.81964e-14, No Iterations 2
smoothSolver:  Solving for Uy, Initial residual = 0.00760149, Final residual = 1.81963e-14, No Iterations 2
smoothSolver:  Solving for O2, Initial residual = 0.00717437, Final residual = 2.38324e-13, No Iterations 2
smoothSolver:  Solving for H2O, Initial residual = 0.00717437, Final residual = 5.81428e-14, No Iterations 2
smoothSolver:  Solving for CH4, Initial residual = 0.00717437, Final residual = 3.9148e-13, No Iterations 2
smoothSolver:  Solving for CO2, Initial residual = 0.00717437, Final residual = 5.8117e-14, No Iterations 2
smoothSolver:  Solving for e, Initial residual = 0.000447317, Final residual = 4.45479e-15, No Iterations 2
PIMPLE: Iteration 2
diagonal:  Solving for rho, Initial residual = 0, Final residual = 0, No Iterations 0
smoothSolver:  Solving for Ux, Initial residual = 0.000775768, Final residual = 1.26491e-15, No Iterations 2
smoothSolver:  Solving for Uy, Initial residual = 0.000775768, Final residual = 1.26453e-15, No Iterations 2
smoothSolver:  Solving for O2, Initial residual = 3.27839e-06, Final residual = 1.99982e-13, No Iterations 2
smoothSolver:  Solving for H2O, Initial residual = 3.27839e-06, Final residual = 5.1181e-17, No Iterations 2
smoothSolver:  Solving for CH4, Initial residual = 3.27839e-06, Final residual = 3.24318e-13, No Iterations 2
smoothSolver:  Solving for CO2, Initial residual = 3.27839e-06, Final residual = 8.04864e-17, No Iterations 2
smoothSolver:  Solving for e, Initial residual = 2.29252e-05, Final residual = 2.91767e-16, No Iterations 2
ExecutionTime = 9.3312 s  ClockTime = 10 s

Courant Number mean: 0.0979281 max: 0.195044
deltaT = 2.7027e-06
Time = 0.000105405s

PIMPLE: Iteration 1
diagonal:  Solving for rho, Initial residual = 0, Final residual = 0, No Iterations 0
smoothSolver:  Solving for Ux, Initial residual = 0.00746666, Final residual = 1.78388e-14, No Iterations 2
smoothSolver:  Solving for Uy, Initial residual = 0.00746666, Final residual = 1.78391e-14, No Iterations 2
smoothSolver:  Solving for O2, Initial residual = 0.00698941, Final residual = 1.89606e-13, No Iterations 2
smoothSolver:  Solving for H2O, Initial residual = 0.00698941, Final residual = 5.66503e-14, No Iterations 2
smoothSolver:  Solving for CH4, Initial residual = 0.00698941, Final residual = 3.76883e-13, No Iterations 2
smoothSolver:  Solving for CO2, Initial residual = 0.00698941, Final residual = 5.66473e-14, No Iterations 2
smoothSolver:  Solving for e, Initial residual = 0.000448285, Final residual = 4.44421e-15, No Iterations 2
PIMPLE: Iteration 2
diagonal:  Solving for rho, Initial residual = 0, Final residual = 0, No Iterations 0
smoothSolver:  Solving for Ux, Initial residual = 0.000699791, Final residual = 1.22149e-15, No Iterations 2
smoothSolver:  Solving for Uy, Initial residual = 0.000699791, Final residual = 1.22106e-15, No Iterations 2
smoothSolver:  Solving for O2, Initial residual = 3.19119e-06, Final residual = 1.74248e-13, No Iterations 2
smoothSolver:  Solving for H2O, Initial residual = 3.19119e-06, Final residual = 3.19494e-17, No Iterations 2
smoothSolver:  Solving for CH4, Initial residual = 3.19119e-06, Final residual = 3.11913e-13, No Iterations 2
smoothSolver:  Solving for CO2, Initial residual = 3.19119e-06, Final residual = 6.65703e-17, No Iterations 2
smoothSolver:  Solving for e, Initial residual = 2.26538e-05, Final residual = 2.90748e-16, No Iterations 2
ExecutionTime = 9.57573 s  ClockTime = 10 s

Courant Number mean: 0.0979385 max: 0.195353
deltaT = 2.7027e-06
Time = 0.000108108s

PIMPLE: Iteration 1
diagonal:  Solving for rho, Initial residual = 0, Final residual = 0, No Iterations 0
smoothSolver:  Solving for Ux, Initial residual = 0.0074302, Final residual = 1.75085e-14, No Iterations 2
smoothSolver:  Solving for Uy, Initial residual = 0.0074302, Final residual = 1.75084e-14, No Iterations 2
smoothSolver:  Solving for O2, Initial residual = 0.00681389, Final residual = 1.813e-13, No Iterations 2
smoothSolver:  Solving for H2O, Initial residual = 0.00681389, Final residual = 5.52572e-14, No Iterations 2
smoothSolver:  Solving for CH4, Initial residual = 0.00681389, Final residual = 3.64376e-13, No Iterations 2
smoothSolver:  Solving for CO2, Initial residual = 0.00681389, Final residual = 5.52676e-14, No Iterations 2
smoothSolver:  Solving for e, Initial residual = 0.000448968, Final residual = 4.55368e-15, No Iterations 2
PIMPLE: Iteration 2
diagonal:  Solving for rho, Initial residual = 0, Final residual = 0, No Iterations 0
smoothSolver:  Solving for Ux, Initial residual = 0.00058043, Final residual = 1.15658e-15, No Iterations 2
smoothSolver:  Solving for Uy, Initial residual = 0.00058043, Final residual = 1.15653e-15, No Iterations 2
smoothSolver:  Solving for O2, Initial residual = 3.16761e-06, Final residual = 1.60973e-13, No Iterations 2
smoothSolver:  Solving for H2O, Initial residual = 3.16761e-06, Final residual = 3.15572e-17, No Iterations 2
smoothSolver:  Solving for CH4, Initial residual = 3.16761e-06, Final residual = 2.96104e-13, No Iterations 2
smoothSolver:  Solving for CO2, Initial residual = 3.16761e-06, Final residual = 3.63598e-17, No Iterations 2
smoothSolver:  Solving for e, Initial residual = 2.24501e-05, Final residual = 2.61079e-16, No Iterations 2
ExecutionTime = 9.8166 s  ClockTime = 10 s

Courant Number mean: 0.0979486 max: 0.195607
deltaT = 2.7027e-06
Time = 0.000110811s

PIMPLE: Iteration 1
diagonal:  Solving for rho, Initial residual = 0, Final residual = 0, No Iterations 0
smoothSolver:  Solving for Ux, Initial residual = 0.00729301, Final residual = 1.71682e-14, No Iterations 2
smoothSolver:  Solving for Uy, Initial residual = 0.00729301, Final residual = 1.71675e-14, No Iterations 2
smoothSolver:  Solving for O2, Initial residual = 0.00664718, Final residual = 1.97399e-13, No Iterations 2
smoothSolver:  Solving for H2O, Initial residual = 0.00664718, Final residual = 5.39201e-14, No Iterations 2
smoothSolver:  Solving for CH4, Initial residual = 0.00664718, Final residual = 3.60105e-13, No Iterations 2
smoothSolver:  Solving for CO2, Initial residual = 0.00664718, Final residual = 5.39329e-14, No Iterations 2
smoothSolver:  Solving for e, Initial residual = 0.000449774, Final residual = 4.57769e-15, No Iterations 2
PIMPLE: Iteration 2
diagonal:  Solving for rho, Initial residual = 0, Final residual = 0, No Iterations 0
smoothSolver:  Solving for Ux, Initial residual = 0.000556206, Final residual = 1.10054e-15, No Iterations 2
smoothSolver:  Solving for Uy, Initial residual = 0.000556206, Final residual = 1.10059e-15, No Iterations 2
smoothSolver:  Solving for O2, Initial residual = 3.16256e-06, Final residual = 1.63519e-13, No Iterations 2
smoothSolver:  Solving for H2O, Initial residual = 3.16256e-06, Final residual = 8.03027e-17, No Iterations 2
smoothSolver:  Solving for CH4, Initial residual = 3.16256e-06, Final residual = 3.11806e-13, No Iterations 2
smoothSolver:  Solving for CO2, Initial residual = 3.16256e-06, Final residual = 5.4611e-17, No Iterations 2
smoothSolver:  Solving for e, Initial residual = 2.19269e-05, Final residual = 2.77375e-16, No Iterations 2
ExecutionTime = 10.0522 s  ClockTime = 11 s

Courant Number mean: 0.0979591 max: 0.195809
deltaT = 2.7027e-06
Time = 0.000113514s

PIMPLE: Iteration 1
diagonal:  Solving for rho, Initial residual = 0, Final residual = 0, No Iterations 0
smoothSolver:  Solving for Ux, Initial residual = 0.00713143, Final residual = 1.68001e-14, No Iterations 2
smoothSolver:  Solving for Uy, Initial residual = 0.00713143, Final residual = 1.68003e-14, No Iterations 2
smoothSolver:  Solving for O2, Initial residual = 0.0064886, Final residual = 2.0502e-13, No Iterations 2
smoothSolver:  Solving for H2O, Initial residual = 0.0064886, Final residual = 5.26839e-14, No Iterations 2
smoothSolver:  Solving for CH4, Initial residual = 0.0064886, Final residual = 3.412e-13, No Iterations 2
smoothSolver:  Solving for CO2, Initial residual = 0.0064886, Final residual = 5.27202e-14, No Iterations 2
smoothSolver:  Solving for e, Initial residual = 0.000450349, Final residual = 4.58921e-15, No Iterations 2
PIMPLE: Iteration 2
diagonal:  Solving for rho, Initial residual = 0, Final residual = 0, No Iterations 0
smoothSolver:  Solving for Ux, Initial residual = 0.000540878, Final residual = 1.05256e-15, No Iterations 2
smoothSolver:  Solving for Uy, Initial residual = 0.000540878, Final residual = 1.05278e-15, No Iterations 2
smoothSolver:  Solving for O2, Initial residual = 3.13094e-06, Final residual = 1.6136e-13, No Iterations 2
smoothSolver:  Solving for H2O, Initial residual = 3.13094e-06, Final residual = 6.6557e-17, No Iterations 2
[...]
smoothSolver:  Solving for CO2, Initial residual = 0.00200697, Final residual = 1.09917e-15, No Iterations 2
smoothSolver:  Solving for e, Initial residual = 0.00234398, Final residual = 2.80201e-15, No Iterations 2
PIMPLE: Iteration 2
diagonal:  Solving for rho, Initial residual = 0, Final residual = 0, No Iterations 0
smoothSolver:  Solving for Ux, Initial residual = 0.00155132, Final residual = 3.7683e-16, No Iterations 2
smoothSolver:  Solving for Uy, Initial residual = 0.00157994, Final residual = 3.82314e-16, No Iterations 2
smoothSolver:  Solving for O2, Initial residual = 0.000608711, Final residual = 4.64856e-16, No Iterations 2
smoothSolver:  Solving for H2O, Initial residual = 0.000608711, Final residual = 2.53578e-16, No Iterations 2
smoothSolver:  Solving for CH4, Initial residual = 0.000601667, Final residual = 5.89654e-16, No Iterations 2
smoothSolver:  Solving for CO2, Initial residual = 0.000608711, Final residual = 2.55684e-16, No Iterations 2
smoothSolver:  Solving for e, Initial residual = 0.000672826, Final residual = 4.56465e-16, No Iterations 2
ExecutionTime = 284.819 s  ClockTime = 288 s

Courant Number mean: 0.0535149 max: 0.195719
deltaT = 1.16793e-06
Time = 0.00215211s

PIMPLE: Iteration 1
diagonal:  Solving for rho, Initial residual = 0, Final residual = 0, No Iterations 0
smoothSolver:  Solving for Ux, Initial residual = 0.00575124, Final residual = 4.85236e-15, No Iterations 2
smoothSolver:  Solving for Uy, Initial residual = 0.00586849, Final residual = 4.92092e-15, No Iterations 2
smoothSolver:  Solving for O2, Initial residual = 0.00201003, Final residual = 1.28555e-15, No Iterations 2
smoothSolver:  Solving for H2O, Initial residual = 0.00201003, Final residual = 1.08445e-15, No Iterations 2
smoothSolver:  Solving for CH4, Initial residual = 0.00201011, Final residual = 1.42333e-15, No Iterations 2
smoothSolver:  Solving for CO2, Initial residual = 0.00201003, Final residual = 1.08679e-15, No Iterations 2
smoothSolver:  Solving for e, Initial residual = 0.00234683, Final residual = 2.78073e-15, No Iterations 2
PIMPLE: Iteration 2
diagonal:  Solving for rho, Initial residual = 0, Final residual = 0, No Iterations 0
smoothSolver:  Solving for Ux, Initial residual = 0.00152654, Final residual = 3.69006e-16, No Iterations 2
smoothSolver:  Solving for Uy, Initial residual = 0.00155519, Final residual = 3.74408e-16, No Iterations 2
smoothSolver:  Solving for O2, Initial residual = 0.000598079, Final residual = 4.45051e-16, No Iterations 2
smoothSolver:  Solving for H2O, Initial residual = 0.000598079, Final residual = 2.45367e-16, No Iterations 2
smoothSolver:  Solving for CH4, Initial residual = 0.000591794, Final residual = 5.80912e-16, No Iterations 2
smoothSolver:  Solving for CO2, Initial residual = 0.000598079, Final residual = 2.47093e-16, No Iterations 2
smoothSolver:  Solving for e, Initial residual = 0.000661238, Final residual = 4.4119e-16, No Iterations 2
ExecutionTime = 285.049 s  ClockTime = 289 s

Courant Number mean: 0.0535335 max: 0.195896
deltaT = 1.16793e-06
Time = 0.00215328s

PIMPLE: Iteration 1
diagonal:  Solving for rho, Initial residual = 0, Final residual = 0, No Iterations 0
smoothSolver:  Solving for Ux, Initial residual = 0.00576553, Final residual = 4.85174e-15, No Iterations 2
smoothSolver:  Solving for Uy, Initial residual = 0.00588463, Final residual = 4.92218e-15, No Iterations 2
smoothSolver:  Solving for O2, Initial residual = 0.00206981, Final residual = 1.29905e-15, No Iterations 2
smoothSolver:  Solving for H2O, Initial residual = 0.00206981, Final residual = 1.10385e-15, No Iterations 2
smoothSolver:  Solving for CH4, Initial residual = 0.00206996, Final residual = 1.43721e-15, No Iterations 2
smoothSolver:  Solving for CO2, Initial residual = 0.00206981, Final residual = 1.10584e-15, No Iterations 2
smoothSolver:  Solving for e, Initial residual = 0.00240533, Final residual = 2.80847e-15, No Iterations 2
PIMPLE: Iteration 2
diagonal:  Solving for rho, Initial residual = 0, Final residual = 0, No Iterations 0
smoothSolver:  Solving for Ux, Initial residual = 0.00156017, Final residual = 3.70315e-16, No Iterations 2
smoothSolver:  Solving for Uy, Initial residual = 0.00158996, Final residual = 3.76559e-16, No Iterations 2
smoothSolver:  Solving for O2, Initial residual = 0.000630239, Final residual = 4.38815e-16, No Iterations 2
smoothSolver:  Solving for H2O, Initial residual = 0.000630239, Final residual = 2.43765e-16, No Iterations 2
smoothSolver:  Solving for CH4, Initial residual = 0.000624259, Final residual = 5.73351e-16, No Iterations 2
smoothSolver:  Solving for CO2, Initial residual = 0.000630239, Final residual = 2.46181e-16, No Iterations 2
smoothSolver:  Solving for e, Initial residual = 0.000692762, Final residual = 4.40026e-16, No Iterations 2
ExecutionTime = 285.288 s  ClockTime = 289 s

Courant Number mean: 0.0535523 max: 0.19599
deltaT = 1.16793e-06
Time = 0.00215445s

PIMPLE: Iteration 1
diagonal:  Solving for rho, Initial residual = 0, Final residual = 0, No Iterations 0
smoothSolver:  Solving for Ux, Initial residual = 0.00577377, Final residual = 4.84778e-15, No Iterations 2
smoothSolver:  Solving for Uy, Initial residual = 0.0058946, Final residual = 4.91894e-15, No Iterations 2
smoothSolver:  Solving for O2, Initial residual = 0.00205237, Final residual = 1.28959e-15, No Iterations 2
smoothSolver:  Solving for H2O, Initial residual = 0.00205237, Final residual = 1.10237e-15, No Iterations 2
smoothSolver:  Solving for CH4, Initial residual = 0.00205257, Final residual = 1.44224e-15, No Iterations 2
smoothSolver:  Solving for CO2, Initial residual = 0.00205237, Final residual = 1.10485e-15, No Iterations 2
smoothSolver:  Solving for e, Initial residual = 0.00238838, Final residual = 2.805e-15, No Iterations 2
PIMPLE: Iteration 2
diagonal:  Solving for rho, Initial residual = 0, Final residual = 0, No Iterations 0
smoothSolver:  Solving for Ux, Initial residual = 0.00154733, Final residual = 3.71736e-16, No Iterations 2
smoothSolver:  Solving for Uy, Initial residual = 0.00157731, Final residual = 3.78505e-16, No Iterations 2
smoothSolver:  Solving for O2, Initial residual = 0.000632494, Final residual = 4.36929e-16, No Iterations 2
smoothSolver:  Solving for H2O, Initial residual = 0.000632494, Final residual = 2.51508e-16, No Iterations 2
smoothSolver:  Solving for CH4, Initial residual = 0.000624595, Final residual = 5.88229e-16, No Iterations 2
smoothSolver:  Solving for CO2, Initial residual = 0.000632494, Final residual = 2.53632e-16, No Iterations 2
smoothSolver:  Solving for e, Initial residual = 0.000692183, Final residual = 4.50444e-16, No Iterations 2
ExecutionTime = 285.51 s  ClockTime = 289 s

Courant Number mean: 0.0535718 max: 0.195944
deltaT = 1.16793e-06
Time = 0.00215562s

PIMPLE: Iteration 1
diagonal:  Solving for rho, Initial residual = 0, Final residual = 0, No Iterations 0
smoothSolver:  Solving for Ux, Initial residual = 0.00577993, Final residual = 4.84262e-15, No Iterations 2
smoothSolver:  Solving for Uy, Initial residual = 0.00590243, Final residual = 4.9154e-15, No Iterations 2
smoothSolver:  Solving for O2, Initial residual = 0.00200815, Final residual = 1.26982e-15, No Iterations 2
smoothSolver:  Solving for H2O, Initial residual = 0.00200815, Final residual = 1.0807e-15, No Iterations 2
smoothSolver:  Solving for CH4, Initial residual = 0.0020083, Final residual = 1.41107e-15, No Iterations 2
smoothSolver:  Solving for CO2, Initial residual = 0.00200815, Final residual = 1.08341e-15, No Iterations 2
smoothSolver:  Solving for e, Initial residual = 0.0023472, Final residual = 2.77156e-15, No Iterations 2
PIMPLE: Iteration 2
diagonal:  Solving for rho, Initial residual = 0, Final residual = 0, No Iterations 0
smoothSolver:  Solving for Ux, Initial residual = 0.00155884, Final residual = 3.73431e-16, No Iterations 2
smoothSolver:  Solving for Uy, Initial residual = 0.00158945, Final residual = 3.7973e-16, No Iterations 2
smoothSolver:  Solving for O2, Initial residual = 0.000614051, Final residual = 4.37997e-16, No Iterations 2
smoothSolver:  Solving for H2O, Initial residual = 0.000614051, Final residual = 2.51501e-16, No Iterations 2
smoothSolver:  Solving for CH4, Initial residual = 0.000606831, Final residual = 5.78425e-16, No Iterations 2
smoothSolver:  Solving for CO2, Initial residual = 0.000614051, Final residual = 2.53744e-16, No Iterations 2
smoothSolver:  Solving for e, Initial residual = 0.000676498, Final residual = 4.50313e-16, No Iterations 2
ExecutionTime = 285.73 s  ClockTime = 289 s

Courant Number mean: 0.0535914 max: 0.195956
deltaT = 1.16793e-06
Time = 0.00215679s

PIMPLE: Iteration 1
diagonal:  Solving for rho, Initial residual = 0, Final residual = 0, No Iterations 0
smoothSolver:  Solving for Ux, Initial residual = 0.00579432, Final residual = 4.83913e-15, No Iterations 2
smoothSolver:  Solving for Uy, Initial residual = 0.00591867, Final residual = 4.91339e-15, No Iterations 2
smoothSolver:  Solving for O2, Initial residual = 0.00199535, Final residual = 1.25535e-15, No Iterations 2
smoothSolver:  Solving for H2O, Initial residual = 0.00199535, Final residual = 1.06418e-15, No Iterations 2
smoothSolver:  Solving for CH4, Initial residual = 0.00199542, Final residual = 1.39564e-15, No Iterations 2
smoothSolver:  Solving for CO2, Initial residual = 0.00199535, Final residual = 1.06621e-15, No Iterations 2
smoothSolver:  Solving for e, Initial residual = 0.00233492, Final residual = 2.74566e-15, No Iterations 2
PIMPLE: Iteration 2
diagonal:  Solving for rho, Initial residual = 0, Final residual = 0, No Iterations 0
smoothSolver:  Solving for Ux, Initial residual = 0.00153441, Final residual = 3.65303e-16, No Iterations 2
smoothSolver:  Solving for Uy, Initial residual = 0.00156493, Final residual = 3.7208e-16, No Iterations 2
smoothSolver:  Solving for O2, Initial residual = 0.000594164, Final residual = 4.31336e-16, No Iterations 2
smoothSolver:  Solving for H2O, Initial residual = 0.000594164, Final residual = 2.40866e-16, No Iterations 2
smoothSolver:  Solving for CH4, Initial residual = 0.000587672, Final residual = 5.6891e-16, No Iterations 2
smoothSolver:  Solving for CO2, Initial residual = 0.000594164, Final residual = 2.43022e-16, No Iterations 2
smoothSolver:  Solving for e, Initial residual = 0.000658922, Final residual = 4.3452e-16, No Iterations 2
ExecutionTime = 285.955 s  ClockTime = 289 s

Courant Number mean: 0.0536104 max: 0.195954
deltaT = 1.16793e-06
Time = 0.00215795s

PIMPLE: Iteration 1
diagonal:  Solving for rho, Initial residual = 0, Final residual = 0, No Iterations 0
smoothSolver:  Solving for Ux, Initial residual = 0.00580854, Final residual = 4.8386e-15, No Iterations 2
smoothSolver:  Solving for Uy, Initial residual = 0.00593473, Final residual = 4.91443e-15, No Iterations 2
smoothSolver:  Solving for O2, Initial residual = 0.00205272, Final residual = 1.27935e-15, No Iterations 2
smoothSolver:  Solving for H2O, Initial residual = 0.00205272, Final residual = 1.08123e-15, No Iterations 2
smoothSolver:  Solving for CH4, Initial residual = 0.00205282, Final residual = 1.41104e-15, No Iterations 2
smoothSolver:  Solving for CO2, Initial residual = 0.00205272, Final residual = 1.08333e-15, No Iterations 2
smoothSolver:  Solving for e, Initial residual = 0.00239136, Final residual = 2.76953e-15, No Iterations 2
PIMPLE: Iteration 2
diagonal:  Solving for rho, Initial residual = 0, Final residual = 0, No Iterations 0
smoothSolver:  Solving for Ux, Initial residual = 0.00156764, Final residual = 3.68125e-16, No Iterations 2
smoothSolver:  Solving for Uy, Initial residual = 0.00159924, Final residual = 3.73682e-16, No Iterations 2
smoothSolver:  Solving for O2, Initial residual = 0.000622053, Final residual = 4.38756e-16, No Iterations 2
smoothSolver:  Solving for H2O, Initial residual = 0.000622053, Final residual = 2.40785e-16, No Iterations 2
smoothSolver:  Solving for CH4, Initial residual = 0.000616894, Final residual = 5.67303e-16, No Iterations 2
smoothSolver:  Solving for CO2, Initial residual = 0.000622053, Final residual = 2.42865e-16, No Iterations 2
smoothSolver:  Solving for e, Initial residual = 0.000684869, Final residual = 4.33863e-16, No Iterations 2
ExecutionTime = 286.173 s  ClockTime = 290 s

Courant Number mean: 0.0536297 max: 0.195788
deltaT = 1.16793e-06
Time = 0.00215912s

PIMPLE: Iteration 1
diagonal:  Solving for rho, Initial residual = 0, Final residual = 0, No Iterations 0
smoothSolver:  Solving for Ux, Initial residual = 0.00581493, Final residual = 4.83388e-15, No Iterations 2
smoothSolver:  Solving for Uy, Initial residual = 0.00594279, Final residual = 4.91106e-15, No Iterations 2
smoothSolver:  Solving for O2, Initial residual = 0.00206084, Final residual = 1.28773e-15, No Iterations 2
smoothSolver:  Solving for H2O, Initial residual = 0.00206084, Final residual = 1.08903e-15, No Iterations 2
smoothSolver:  Solving for CH4, Initial residual = 0.00206097, Final residual = 1.41321e-15, No Iterations 2
smoothSolver:  Solving for CO2, Initial residual = 0.00206084, Final residual = 1.0914e-15, No Iterations 2
smoothSolver:  Solving for e, Initial residual = 0.00239863, Final residual = 2.77941e-15, No Iterations 2
PIMPLE: Iteration 2
diagonal:  Solving for rho, Initial residual = 0, Final residual = 0, No Iterations 0
smoothSolver:  Solving for Ux, Initial residual = 0.00156964, Final residual = 3.72038e-16, No Iterations 2
smoothSolver:  Solving for Uy, Initial residual = 0.0016017, Final residual = 3.78446e-16, No Iterations 2
smoothSolver:  Solving for O2, Initial residual = 0.000635806, Final residual = 4.48189e-16, No Iterations 2
smoothSolver:  Solving for H2O, Initial residual = 0.000635806, Final residual = 2.49159e-16, No Iterations 2
smoothSolver:  Solving for CH4, Initial residual = 0.000629397, Final residual = 5.70051e-16, No Iterations 2
smoothSolver:  Solving for CO2, Initial residual = 0.000635806, Final residual = 2.51535e-16, No Iterations 2
smoothSolver:  Solving for e, Initial residual = 0.000694212, Final residual = 4.45189e-16, No Iterations 2
ExecutionTime = 286.393 s  ClockTime = 290 s

Courant Number mean: 0.0536495 max: 0.195667
deltaT = 1.16793e-06
Time = 0.00216029s

PIMPLE: Iteration 1
diagonal:  Solving for rho, Initial residual = 0, Final residual = 0, No Iterations 0
smoothSolver:  Solving for Ux, Initial residual = 0.00581952, Final residual = 4.82911e-15, No Iterations 2
smoothSolver:  Solving for Uy, Initial residual = 0.00594903, Final residual = 4.90735e-15, No Iterations 2
smoothSolver:  Solving for O2, Initial residual = 0.00201293, Final residual = 1.2575e-15, No Iterations 2
smoothSolver:  Solving for H2O, Initial residual = 0.00201293, Final residual = 1.06753e-15, No Iterations 2
smoothSolver:  Solving for CH4, Initial residual = 0.00201301, Final residual = 1.38812e-15, No Iterations 2
smoothSolver:  Solving for CO2, Initial residual = 0.00201293, Final residual = 1.06981e-15, No Iterations 2
smoothSolver:  Solving for e, Initial residual = 0.00235386, Final residual = 2.74683e-15, No Iterations 2
PIMPLE: Iteration 2
diagonal:  Solving for rho, Initial residual = 0, Final residual = 0, No Iterations 0
smoothSolver:  Solving for Ux, Initial residual = 0.00157166, Final residual = 3.7207e-16, No Iterations 2
smoothSolver:  Solving for Uy, Initial residual = 0.00160418, Final residual = 3.78196e-16, No Iterations 2
smoothSolver:  Solving for O2, Initial residual = 0.000622072, Final residual = 4.38558e-16, No Iterations 2
smoothSolver:  Solving for H2O, Initial residual = 0.000622072, Final residual = 2.48825e-16, No Iterations 2
smoothSolver:  Solving for CH4, Initial residual = 0.000614197, Final residual = 5.65847e-16, No Iterations 2
smoothSolver:  Solving for CO2, Initial residual = 0.000622072, Final residual = 2.51103e-16, No Iterations 2
smoothSolver:  Solving for e, Initial residual = 0.000681697, Final residual = 4.45944e-16, No Iterations 2
ExecutionTime = 286.611 s  ClockTime = 290 s

Courant Number mean: 0.0536695 max: 0.196023
deltaT = 1.16793e-06
Time = 0.00216146s

PIMPLE: Iteration 1
diagonal:  Solving for rho, Initial residual = 0, Final residual = 0, No Iterations 0
smoothSolver:  Solving for Ux, Initial residual = 0.00583595, Final residual = 4.82683e-15, No Iterations 2
smoothSolver:  Solving for Uy, Initial residual = 0.00596735, Final residual = 4.90605e-15, No Iterations 2
smoothSolver:  Solving for O2, Initial residual = 0.00198481, Final residual = 1.24717e-15, No Iterations 2
smoothSolver:  Solving for H2O, Initial residual = 0.00198481, Final residual = 1.04582e-15, No Iterations 2
smoothSolver:  Solving for CH4, Initial residual = 0.00198488, Final residual = 1.3757e-15, No Iterations 2
smoothSolver:  Solving for CO2, Initial residual = 0.00198481, Final residual = 1.0481e-15, No Iterations 2
smoothSolver:  Solving for e, Initial residual = 0.00232674, Final residual = 2.71404e-15, No Iterations 2
PIMPLE: Iteration 2
diagonal:  Solving for rho, Initial residual = 0, Final residual = 0, No Iterations 0
smoothSolver:  Solving for Ux, Initial residual = 0.00154934, Final residual = 3.6487e-16, No Iterations 2
smoothSolver:  Solving for Uy, Initial residual = 0.00158181, Final residual = 3.71995e-16, No Iterations 2
smoothSolver:  Solving for O2, Initial residual = 0.000594461, Final residual = 4.38719e-16, No Iterations 2
smoothSolver:  Solving for H2O, Initial residual = 0.000594461, Final residual = 2.38717e-16, No Iterations 2
smoothSolver:  Solving for CH4, Initial residual = 0.000588367, Final residual = 5.65732e-16, No Iterations 2
smoothSolver:  Solving for CO2, Initial residual = 0.000594461, Final residual = 2.41036e-16, No Iterations 2
smoothSolver:  Solving for e, Initial residual = 0.000659686, Final residual = 4.32381e-16, No Iterations 2
ExecutionTime = 286.829 s  ClockTime = 290 s

Courant Number mean: 0.0536889 max: 0.196074
deltaT = 1.16793e-06
Time = 0.00216263s

PIMPLE: Iteration 1
diagonal:  Solving for rho, Initial residual = 0, Final residual = 0, No Iterations 0
smoothSolver:  Solving for Ux, Initial residual = 0.00584728, Final residual = 4.82744e-15, No Iterations 2
smoothSolver:  Solving for Uy, Initial residual = 0.00598046, Final residual = 4.90766e-15, No Iterations 2
smoothSolver:  Solving for O2, Initial residual = 0.0020321, Final residual = 1.2476e-15, No Iterations 2
smoothSolver:  Solving for H2O, Initial residual = 0.0020321, Final residual = 1.06012e-15, No Iterations 2
smoothSolver:  Solving for CH4, Initial residual = 0.00203208, Final residual = 1.38651e-15, No Iterations 2
smoothSolver:  Solving for CO2, Initial residual = 0.0020321, Final residual = 1.0629e-15, No Iterations 2
smoothSolver:  Solving for e, Initial residual = 0.00237341, Final residual = 2.73606e-15, No Iterations 2
PIMPLE: Iteration 2
diagonal:  Solving for rho, Initial residual = 0, Final residual = 0, No Iterations 0
smoothSolver:  Solving for Ux, Initial residual = 0.00157982, Final residual = 3.68737e-16, No Iterations 2
smoothSolver:  Solving for Uy, Initial residual = 0.00161338, Final residual = 3.75229e-16, No Iterations 2
smoothSolver:  Solving for O2, Initial residual = 0.000616096, Final residual = 4.25518e-16, No Iterations 2
smoothSolver:  Solving for H2O, Initial residual = 0.000616096, Final residual = 2.39578e-16, No Iterations 2
smoothSolver:  Solving for CH4, Initial residual = 0.000611126, Final residual = 5.63056e-16, No Iterations 2
smoothSolver:  Solving for CO2, Initial residual = 0.000616096, Final residual = 2.41949e-16, No Iterations 2
smoothSolver:  Solving for e, Initial residual = 0.000682067, Final residual = 4.33742e-16, No Iterations 2
ExecutionTime = 287.052 s  ClockTime = 291 s

Courant Number mean: 0.0537086 max: 0.195974
deltaT = 1.16793e-06
Time = 0.00216379s

PIMPLE: Iteration 1
diagonal:  Solving for rho, Initial residual = 0, Final residual = 0, No Iterations 0
