/*---------------------------------------------------------------------------*\
  =========                 |
  \\      /  F ield         | OpenFOAM: The Open Source CFD Toolbox
   \\    /   O peration     | Website:  https://openfoam.org
    \\  /    A nd           | Version:  13
     \\/     M anipulation  |
\*---------------------------------------------------------------------------*/
Build  : 13-65eda17ad4ca
Exec   : blockMesh
Date   : Sep 29 2025
Time   : 02:02:48
Host   : "of13"
PID    : 14556
I/O    : uncollated
Case   : /home/openfoam13/OF-13/methaneAirBurning_2D_multShock
nProcs : 1
sigFpe : Floating point exception trapping - not supported on this platform
fileModificationChecking : Monitoring run-time modified files using timeStampMaster (fileModificationSkew 10)
allowSystemOperations : Allowing user-supplied system call operations

// * * * * * * * * * * * * * * * * * * * * * * * * * * * * * * * * * * * * * //
Create time

Reading "blockMeshDict"

Creating block mesh from
    "system/blockMeshDict"
Expanding #calc at line 29 in file "/home/openfoam13/OF-13/methaneAirBurning_2D_multShock/system/blockMeshDict"
Creating new library in "dynamicCode/_261e217dcc631e695916c0c44a7b0514e0ccabbb/platforms/linuxArm64GccDPInt32Opt/lib/libcodeStream_261e217dcc631e695916c0c44a7b0514e0ccabbb.so"
"/opt/openfoam13/etc/codeTemplates/dynamicCode/codeStreamTemplate.C" "/home/openfoam13/OF-13/methaneAirBurning_2D_multShock/dynamicCode/_261e217dcc631e695916c0c44a7b0514e0ccabbb/codeStreamTemplate.C"
Invoking "wmake -s libso /home/openfoam13/OF-13/methaneAirBurning_2D_multShock/dynamicCode/_261e217dcc631e695916c0c44a7b0514e0ccabbb"
wmake libso /home/openfoam13/OF-13/methaneAirBurning_2D_multShock/dynamicCode/_261e217dcc631e695916c0c44a7b0514e0ccabbb
    ln: ./lnInclude
    wmkdep: codeStreamTemplate.C
    Ctoo: codeStreamTemplate.C
    ld: /home/openfoam13/OF-13/methaneAirBurning_2D_multShock/dynamicCode/_261e217dcc631e695916c0c44a7b0514e0ccabbb/../platforms/linuxArm64GccDPInt32Opt/lib/libcodeStream_261e217dcc631e695916c0c44a7b0514e0ccabbb.so
Expanding #calc at line 30 in file "/home/openfoam13/OF-13/methaneAirBurning_2D_multShock/system/blockMeshDict"
Creating new library in "dynamicCode/_613603ccc1e9a8cf95282eb11c9927560baf7b0e/platforms/linuxArm64GccDPInt32Opt/lib/libcodeStream_613603ccc1e9a8cf95282eb11c9927560baf7b0e.so"
"/opt/openfoam13/etc/codeTemplates/dynamicCode/codeStreamTemplate.C" "/home/openfoam13/OF-13/methaneAirBurning_2D_multShock/dynamicCode/_613603ccc1e9a8cf95282eb11c9927560baf7b0e/codeStreamTemplate.C"
Invoking "wmake -s libso /home/openfoam13/OF-13/methaneAirBurning_2D_multShock/dynamicCode/_613603ccc1e9a8cf95282eb11c9927560baf7b0e"
wmake libso /home/openfoam13/OF-13/methaneAirBurning_2D_multShock/dynamicCode/_613603ccc1e9a8cf95282eb11c9927560baf7b0e
    ln: ./lnInclude
    wmkdep: codeStreamTemplate.C
    Ctoo: codeStreamTemplate.C
    ld: /home/openfoam13/OF-13/methaneAirBurning_2D_multShock/dynamicCode/_613603ccc1e9a8cf95282eb11c9927560baf7b0e/../platforms/linuxArm64GccDPInt32Opt/lib/libcodeStream_613603ccc1e9a8cf95282eb11c9927560baf7b0e.so
Expanding #calc at line 33 in file "/home/openfoam13/OF-13/methaneAirBurning_2D_multShock/system/blockMeshDict"
Creating new library in "dynamicCode/_8b5cccf5b0170ccd8801f9b1ef94bb5e93066c8c/platforms/linuxArm64GccDPInt32Opt/lib/libcodeStream_8b5cccf5b0170ccd8801f9b1ef94bb5e93066c8c.so"
"/opt/openfoam13/etc/codeTemplates/dynamicCode/codeStreamTemplate.C" "/home/openfoam13/OF-13/methaneAirBurning_2D_multShock/dynamicCode/_8b5cccf5b0170ccd8801f9b1ef94bb5e93066c8c/codeStreamTemplate.C"
Invoking "wmake -s libso /home/openfoam13/OF-13/methaneAirBurning_2D_multShock/dynamicCode/_8b5cccf5b0170ccd8801f9b1ef94bb5e93066c8c"
wmake libso /home/openfoam13/OF-13/methaneAirBurning_2D_multShock/dynamicCode/_8b5cccf5b0170ccd8801f9b1ef94bb5e93066c8c
    ln: ./lnInclude
    wmkdep: codeStreamTemplate.C
    Ctoo: codeStreamTemplate.C
    ld: /home/openfoam13/OF-13/methaneAirBurning_2D_multShock/dynamicCode/_8b5cccf5b0170ccd8801f9b1ef94bb5e93066c8c/../platforms/linuxArm64GccDPInt32Opt/lib/libcodeStream_8b5cccf5b0170ccd8801f9b1ef94bb5e93066c8c.so
Expanding #calc at line 34 in file "/home/openfoam13/OF-13/methaneAirBurning_2D_multShock/system/blockMeshDict"
Creating new library in "dynamicCode/_19194f7ccea637b0097ce52fb71e39020f99ba77/platforms/linuxArm64GccDPInt32Opt/lib/libcodeStream_19194f7ccea637b0097ce52fb71e39020f99ba77.so"
"/opt/openfoam13/etc/codeTemplates/dynamicCode/codeStreamTemplate.C" "/home/openfoam13/OF-13/methaneAirBurning_2D_multShock/dynamicCode/_19194f7ccea637b0097ce52fb71e39020f99ba77/codeStreamTemplate.C"
Invoking "wmake -s libso /home/openfoam13/OF-13/methaneAirBurning_2D_multShock/dynamicCode/_19194f7ccea637b0097ce52fb71e39020f99ba77"
wmake libso /home/openfoam13/OF-13/methaneAirBurning_2D_multShock/dynamicCode/_19194f7ccea637b0097ce52fb71e39020f99ba77
    ln: ./lnInclude
    wmkdep: codeStreamTemplate.C
    Ctoo: codeStreamTemplate.C
    ld: /home/openfoam13/OF-13/methaneAirBurning_2D_multShock/dynamicCode/_19194f7ccea637b0097ce52fb71e39020f99ba77/../platforms/linuxArm64GccDPInt32Opt/lib/libcodeStream_19194f7ccea637b0097ce52fb71e39020f99ba77.so
Creating block edges
No non-planar block faces defined
Creating topology blocks
Creating topology patches

Creating block mesh topology

Check topology

	Basic statistics
		Number of internal faces : 0
		Number of boundary faces : 6
		Number of defined boundary faces : 6
		Number of undefined boundary faces : 0
	Checking patch -> block consistency

Creating block offsets
Creating merge list .

Creating polyMesh from blockMesh
Creating points with scale 1
    Block 0 cell size :
        i : 0.01 .. 0.01
        j : 0.01
        k : 0.2
Creating cells
Creating patches

Writing polyMesh
----------------
Mesh Information
----------------
  boundingBox: (0 -1 -0.1) (10 1 0.1)
  nPoints: 402402
  nCells: 200000
  nFaces: 801200
  nInternalFaces: 398800
----------------
Patches
----------------
  patch 0 (start: 398800 size: 200) name: minX
  patch 1 (start: 399000 size: 200) name: maxX
  patch 2 (start: 399200 size: 1000) name: minY
  patch 3 (start: 400200 size: 1000) name: maxY
  patch 4 (start: 401200 size: 200000) name: minZ
  patch 5 (start: 601200 size: 200000) name: maxZ

End

